Circuit: * C:\Users\metecangazi\Google Drive\WORKSPACE\ELEC421\HW1\SIM\HW1_SIM_3.asc

Ignoring BSIM parameter XL
Ignoring BSIM parameter XW
Warning: Pd = 0 is less than W.
Warning: Ps = 0 is less than W.
Direct Newton iteration failed to find .op point.  (Use ".option noopiter" to skip.)
Starting Gmin stepping
Gmin = 10
Gmin = 1.07374
Gmin = 0.115292
Gmin = 0.0123794
Gmin = 0.00132923
Gmin = 0.000142725
Gmin = 1.5325e-005
Gmin = 1.6455e-006
Gmin = 1.76685e-007
Gmin = 1.89714e-008
vernier = 0.5
vernier = 0.25
Gmin = 6.47846e-009
vernier = 0.333333
vernier = 0.444444
vernier = 0.222222
Gmin = 3.55011e-009
vernier = 0.111111
vernier = 0.148148
Gmin = 2.67651e-009
vernier = 0.197531
vernier = 0.0987653
vernier = 0.0493827
Gmin = 2.34065e-009
vernier = 0.0658435
vernier = 0.0877914
Gmin = 1.9457e-009
vernier = 0.117055
vernier = 0.0585276
vernier = 0.0292638
Gmin = 1.79635e-009
vernier = 0.0390184
vernier = 0.0520245
Gmin = 1.60934e-009
vernier = 0.0693659
vernier = 0.0924879
vernier = 0.046244
Gmin = 1.41456e-009
vernier = 0.023122
vernier = 0.0308293
Gmin = 1.33281e-009
vernier = 0.0411057
vernier = 0.0548076
Gmin = 1.20126e-009
vernier = 0.0274038
vernier = 0.0137019
Gmin = 1.14919e-009
vernier = 0.0182692
vernier = 0.0243589
Gmin = 1.09137e-009
vernier = 0.0324786
vernier = 0.0433047
Gmin = 1.00525e-009
vernier = 0.0216524
vernier = 0.0108262
vernier = 0.0144349
Gmin = 9.91714e-010
vernier = 0.0192465
vernier = 0.025662
Gmin = 9.47126e-010
vernier = 0.0342161
Gmin = 8.79074e-010
vernier = 0.0456214
vernier = 0.0228107
vernier = 0.0114053
vernier = 0.0152071
Gmin = 8.56043e-010
vernier = 0.0202762
Gmin = 8.18985e-010
vernier = 0.0270349
vernier = 0.0360465
vernier = 0.0180232
vernier = 0.00901162
Gmin = 7.82578e-010
vernier = 0.0120155
Gmin = 7.62304e-010
vernier = 0.0160207
vernier = 0.0213609
Gmin = 7.30249e-010
vernier = 0.0284812
vernier = 0.0142406
vernier = 0.00712029
Gmin = 7.13579e-010
vernier = 0.00949371
vernier = 0.0126583
Gmin = 6.95626e-010
vernier = 0.0168777
vernier = 0.0225036
Gmin = 6.68115e-010
vernier = 0.0112518
vernier = 0.0056259
vernier = 0.0075012
Gmin = 6.60955e-010
vernier = 0.0100016
Gmin = 6.46264e-010
vernier = 0.0133355
vernier = 0.0177806
Gmin = 6.22346e-010
vernier = 0.0237075
vernier = 0.0118537
vernier = 0.00592687
Gmin = 6.123e-010
vernier = 0.00790249
vernier = 0.0105366
Gmin = 5.98758e-010
vernier = 0.0140489
vernier = 0.0187318
vernier = 0.0093659
Gmin = 5.83218e-010
vernier = 0.00468295
vernier = 0.00624394
Gmin = 5.76209e-010
vernier = 0.00832524
vernier = 0.0111003
Gmin = 5.64158e-010
vernier = 0.0148004
Gmin = 5.45711e-010
vernier = 0.0197339
vernier = 0.00986695
vernier = 0.00493347
vernier = 0.00657796
Gmin = 5.40579e-010
vernier = 0.00877062
Gmin = 5.30026e-010
vernier = 0.0116942
vernier = 0.0155922
vernier = 0.0077961
vernier = 0.00389805
Gmin = 5.20316e-010
vernier = 0.0051974
Gmin = 5.1427e-010
vernier = 0.00692986
vernier = 0.00923982
Gmin = 5.04281e-010
vernier = 0.0123198
vernier = 0.0164263
vernier = 0.00821317
Gmin = 4.92783e-010
vernier = 0.00410658
vernier = 0.00547544
Gmin = 4.87586e-010
vernier = 0.00730059
vernier = 0.00973411
Gmin = 4.7863e-010
vernier = 0.0129788
Gmin = 4.64875e-010
vernier = 0.0173051
vernier = 0.00865254
vernier = 0.00432627
vernier = 0.00576836
Gmin = 4.61039e-010
vernier = 0.00769114
Gmin = 4.53136e-010
vernier = 0.0102549
vernier = 0.0136731
vernier = 0.00683657
vernier = 0.00341828
Gmin = 4.45847e-010
vernier = 0.00455771
Gmin = 4.413e-010
vernier = 0.00607695
vernier = 0.00810259
Gmin = 4.33774e-010
vernier = 0.0108035
vernier = 0.0144046
vernier = 0.0072023
Gmin = 4.25086e-010
vernier = 0.00360115
vernier = 0.00480153
Gmin = 4.21152e-010
vernier = 0.00640204
vernier = 0.00853606
Gmin = 4.1436e-010
vernier = 0.0113814
vernier = 0.0056907
vernier = 0.00284535
Gmin = 4.09967e-010
vernier = 0.0037938
vernier = 0.0050584
Gmin = 4.06035e-010
vernier = 0.00674453
Gmin = 3.99924e-010
vernier = 0.00899271
vernier = 0.0119903
vernier = 0.00599514
vernier = 0.00299757
Gmin = 3.94276e-010
vernier = 0.00399676
Gmin = 3.90748e-010
vernier = 0.00532901
vernier = 0.00710534
Gmin = 3.84897e-010
vernier = 0.00947379
vernier = 0.0126317
vernier = 0.00631586
Gmin = 3.78128e-010
vernier = 0.00315793
vernier = 0.00421057
Gmin = 3.75057e-010
vernier = 0.00561409
vernier = 0.00748545
Gmin = 3.69747e-010
vernier = 0.0099806
vernier = 0.0049903
vernier = 0.00249515
Gmin = 3.66307e-010
vernier = 0.00332687
vernier = 0.00443582
Gmin = 3.63223e-010
vernier = 0.00591443
Gmin = 3.58425e-010
vernier = 0.0078859
vernier = 0.0105145
vernier = 0.00525726
vernier = 0.00262863
Gmin = 3.53982e-010
vernier = 0.00350484
Gmin = 3.51203e-010
vernier = 0.00467312
vernier = 0.00623083
Gmin = 3.46586e-010
vernier = 0.00830777
vernier = 0.011077
vernier = 0.00553851
Gmin = 3.41234e-010
vernier = 0.00276926
vernier = 0.00369234
Gmin = 3.38803e-010
vernier = 0.00492312
vernier = 0.00656416
Gmin = 3.34593e-010
vernier = 0.00875221
vernier = 0.0043761
vernier = 0.00218805
Gmin = 3.3186e-010
vernier = 0.0029174
vernier = 0.00388987
Gmin = 3.2941e-010
vernier = 0.00518649
Gmin = 3.2559e-010
vernier = 0.00691532
vernier = 0.00922042
vernier = 0.00461021
vernier = 0.0023051
Gmin = 3.22048e-010
vernier = 0.00307347
Gmin = 3.19829e-010
vernier = 0.00409796
vernier = 0.00546395
Gmin = 3.16139e-010
vernier = 0.00728526
vernier = 0.00971368
vernier = 0.00485684
Gmin = 3.11854e-010
vernier = 0.00242842
vernier = 0.00323789
Gmin = 3.09904e-010
vernier = 0.00431719
vernier = 0.00575625
Gmin = 3.06524e-010
vernier = 0.007675
vernier = 0.0038375
vernier = 0.00191875
Gmin = 3.04328e-010
vernier = 0.00255833
vernier = 0.00341111
Gmin = 3.02356e-010
vernier = 0.00454814
Gmin = 2.99279e-010
vernier = 0.00606419
vernier = 0.00808559
vernier = 0.00404279
vernier = 0.0020214
Gmin = 2.96422e-010
vernier = 0.00269519
Gmin = 2.9463e-010
vernier = 0.00359359
vernier = 0.00479145
Gmin = 2.91647e-010
vernier = 0.0063886
vernier = 0.00851814
vernier = 0.00425907
Gmin = 2.88177e-010
vernier = 0.00212953
vernier = 0.00283938
Gmin = 2.86596e-010
vernier = 0.00378584
vernier = 0.00504778
Gmin = 2.83853e-010
vernier = 0.00673037
vernier = 0.00336519
vernier = 0.00168259
Gmin = 2.82069e-010
vernier = 0.00224346
vernier = 0.00299128
Gmin = 2.80465e-010
vernier = 0.00398837
Gmin = 2.77961e-010
vernier = 0.00531782
vernier = 0.00709043
vernier = 0.00354521
vernier = 0.00177261
Gmin = 2.75632e-010
vernier = 0.00236347
Gmin = 2.7417e-010
vernier = 0.0031513
vernier = 0.00420173
Gmin = 2.71735e-010
vernier = 0.00560231
vernier = 0.00746974
vernier = 0.00373487
Gmin = 2.68897e-010
vernier = 0.00186743
vernier = 0.00248991
Gmin = 2.67603e-010
vernier = 0.00331988
vernier = 0.00442651
Gmin = 2.65356e-010
vernier = 0.00590201
Gmin = 2.61857e-010
vernier = 0.00786935
vernier = 0.00393467
vernier = 0.00196734
vernier = 0.00262311
Gmin = 2.60872e-010
vernier = 0.00349749
Gmin = 2.58828e-010
vernier = 0.00466331
vernier = 0.00621775
vernier = 0.00310887
vernier = 0.00155444
Gmin = 2.56925e-010
vernier = 0.00207258
Gmin = 2.5573e-010
vernier = 0.00276344
vernier = 0.00368459
Gmin = 2.53736e-010
vernier = 0.00491278
vernier = 0.00655038
vernier = 0.00327519
Gmin = 2.51411e-010
vernier = 0.00163759
vernier = 0.00218346
Gmin = 2.5035e-010
vernier = 0.00291128
vernier = 0.0038817
Gmin = 2.48505e-010
vernier = 0.0051756
Gmin = 2.4563e-010
vernier = 0.0069008
vernier = 0.0034504
vernier = 0.0017252
vernier = 0.00230027
Gmin = 2.44819e-010
vernier = 0.00306702
Gmin = 2.43136e-010
vernier = 0.00408936
vernier = 0.00545248
vernier = 0.00272624
vernier = 0.00136312
Gmin = 2.41568e-010
vernier = 0.00181749
Gmin = 2.40582e-010
vernier = 0.00242332
vernier = 0.0032311
Gmin = 2.38936e-010
vernier = 0.00430813
vernier = 0.00574417
vernier = 0.00287208
Gmin = 2.37015e-010
vernier = 0.00143604
vernier = 0.00191472
Gmin = 2.36138e-010
vernier = 0.00255296
vernier = 0.00340395
Gmin = 2.34611e-010
vernier = 0.0045386
Gmin = 2.32229e-010
vernier = 0.00605146
vernier = 0.00302573
vernier = 0.00151287
vernier = 0.00201715
Gmin = 2.31556e-010
vernier = 0.00268954
Gmin = 2.3016e-010
vernier = 0.00358605
vernier = 0.0047814
Gmin = 2.27834e-010
vernier = 0.00637519
vernier = 0.0031876
vernier = 0.0015938
Gmin = 2.26838e-010
vernier = 0.00212506
vernier = 0.00283342
Gmin = 2.25477e-010
vernier = 0.00377789
vernier = 0.00503719
vernier = 0.00251859
Gmin = 2.23886e-010
vernier = 0.0012593
vernier = 0.00167906
Gmin = 2.23159e-010
vernier = 0.00223875
vernier = 0.002985
Gmin = 2.21893e-010
vernier = 0.00397999
Gmin = 2.19916e-010
vernier = 0.00530666
vernier = 0.00265333
vernier = 0.00132666
vernier = 0.00176889
Gmin = 2.19358e-010
vernier = 0.00235851
Gmin = 2.18197e-010
vernier = 0.00314468
vernier = 0.00419291
Gmin = 2.16262e-010
vernier = 0.00559055
vernier = 0.00279527
vernier = 0.00139764
Gmin = 2.15433e-010
vernier = 0.00186351
vernier = 0.00248469
Gmin = 2.14299e-010
vernier = 0.00331291
vernier = 0.00441722
Gmin = 2.12503e-010
vernier = 0.00588962
vernier = 0.00294481
vernier = 0.00147241
Gmin = 2.11333e-010
vernier = 0.00196321
vernier = 0.00261761
Gmin = 2.10282e-010
vernier = 0.00349014
Gmin = 2.08637e-010
vernier = 0.00465352
vernier = 0.00232676
vernier = 0.00116338
vernier = 0.00155117
Gmin = 2.08173e-010
vernier = 0.00206823
Gmin = 2.07207e-010
vernier = 0.00275764
vernier = 0.00367685
Gmin = 2.05594e-010
vernier = 0.00490247
vernier = 0.00245124
vernier = 0.00122562
Gmin = 2.04903e-010
vernier = 0.00163416
vernier = 0.00217887
Gmin = 2.03957e-010
vernier = 0.00290517
vernier = 0.00387355
Gmin = 2.02457e-010
vernier = 0.00516474
vernier = 0.00258237
vernier = 0.00129118
Gmin = 2.01479e-010
vernier = 0.00172158
vernier = 0.00229544
Gmin = 2.006e-010
vernier = 0.00306058
Gmin = 1.99224e-010
vernier = 0.00408078
vernier = 0.00544103
vernier = 0.00272052
vernier = 0.00136026
Gmin = 1.97941e-010
vernier = 0.00181368
Gmin = 1.97135e-010
vernier = 0.00241824
vernier = 0.00322431
Gmin = 1.9579e-010
vernier = 0.00429908
vernier = 0.00214954
vernier = 0.00107477
Gmin = 1.95212e-010
vernier = 0.00143303
vernier = 0.0019107
Gmin = 1.94421e-010
vernier = 0.0025476
vernier = 0.0033968
Gmin = 1.93167e-010
vernier = 0.00452907
vernier = 0.00226453
vernier = 0.00113227
Gmin = 1.92348e-010
vernier = 0.00150969
vernier = 0.00201292
Gmin = 1.91612e-010
vernier = 0.00268389
Gmin = 1.90459e-010
vernier = 0.00357852
vernier = 0.00477136
vernier = 0.00238568
vernier = 0.00119284
Gmin = 1.89383e-010
vernier = 0.00159045
Gmin = 1.88707e-010
vernier = 0.0021206
vernier = 0.00282747
Gmin = 1.87577e-010
vernier = 0.00376996
vernier = 0.00502661
vernier = 0.00251331
Gmin = 1.86256e-010
vernier = 0.00125665
vernier = 0.00167554
Gmin = 1.85652e-010
vernier = 0.00223405
vernier = 0.00297873
Gmin = 1.84602e-010
vernier = 0.00397164
vernier = 0.00198582
vernier = 0.00099291
Gmin = 1.83916e-010
vernier = 0.00132388
vernier = 0.00176517
Gmin = 1.83298e-010
vernier = 0.00235356
Gmin = 1.8233e-010
vernier = 0.00313808
vernier = 0.00418411
vernier = 0.00209205
vernier = 0.00104603
Gmin = 1.81427e-010
vernier = 0.0013947
Gmin = 1.80858e-010
vernier = 0.0018596
vernier = 0.00247947
Gmin = 1.79908e-010
vernier = 0.00330596
vernier = 0.00440794
vernier = 0.00220397
Gmin = 1.78797e-010
vernier = 0.00110199
vernier = 0.00146931
Gmin = 1.78289e-010
vernier = 0.00195909
vernier = 0.00261211
Gmin = 1.77403e-010
vernier = 0.00348282
Gmin = 1.76019e-010
vernier = 0.00464375
vernier = 0.00232188
vernier = 0.00116094
vernier = 0.00154792
Gmin = 1.75628e-010
vernier = 0.00206389
Gmin = 1.74815e-010
vernier = 0.00275185
vernier = 0.00366914
Gmin = 1.73457e-010
vernier = 0.00489218
vernier = 0.00244609
vernier = 0.00122304
Gmin = 1.72875e-010
vernier = 0.00163073
vernier = 0.0021743
Gmin = 1.72078e-010
vernier = 0.00289907
vernier = 0.00386542
vernier = 0.00193271
Gmin = 1.71146e-010
vernier = 0.000966356
vernier = 0.00128847
Gmin = 1.70719e-010
vernier = 0.00171796
vernier = 0.00229062
Gmin = 1.69976e-010
vernier = 0.00305416
Gmin = 1.68812e-010
vernier = 0.00407221
vernier = 0.0020361
vernier = 0.00101805
vernier = 0.0013574
Gmin = 1.68483e-010
vernier = 0.00180987
Gmin = 1.67798e-010
vernier = 0.00241316
vernier = 0.00321754
Gmin = 1.66655e-010
vernier = 0.00429006
vernier = 0.00214503
vernier = 0.00107251
Gmin = 1.66165e-010
vernier = 0.00143002
vernier = 0.00190669
Gmin = 1.65493e-010
vernier = 0.00254226
vernier = 0.00338967
Gmin = 1.64427e-010
vernier = 0.00451956
vernier = 0.00225978
vernier = 0.00112989
Gmin = 1.63733e-010
vernier = 0.00150652
vernier = 0.00200869
Gmin = 1.63107e-010
vernier = 0.00267826
Gmin = 1.62127e-010
vernier = 0.00357101
vernier = 0.0017855
vernier = 0.000892752
vernier = 0.00119034
Gmin = 1.6185e-010
vernier = 0.00158711
Gmin = 1.61273e-010
vernier = 0.00211615
vernier = 0.00282153
Gmin = 1.6031e-010
vernier = 0.00376205
vernier = 0.00188102
vernier = 0.000940511
Gmin = 1.59896e-010
vernier = 0.00125401
vernier = 0.00167202
Gmin = 1.59329e-010
vernier = 0.00222936
vernier = 0.00297248
Gmin = 1.58429e-010
vernier = 0.0039633
vernier = 0.00198165
vernier = 0.000990826
Gmin = 1.57841e-010
vernier = 0.0013211
vernier = 0.00176147
Gmin = 1.57312e-010
vernier = 0.00234862
Gmin = 1.56483e-010
vernier = 0.0031315
vernier = 0.00417533
vernier = 0.00208766
vernier = 0.00104383
Gmin = 1.5571e-010
vernier = 0.00139177
Gmin = 1.55223e-010
vernier = 0.0018557
vernier = 0.00247427
Gmin = 1.54409e-010
vernier = 0.00329902
vernier = 0.00164951
vernier = 0.000824755
Gmin = 1.54059e-010
vernier = 0.00109967
vernier = 0.00146623
Gmin = 1.5358e-010
vernier = 0.00195497
vernier = 0.00260663
Gmin = 1.52819e-010
vernier = 0.00347551
vernier = 0.00173775
vernier = 0.000868876
Gmin = 1.52322e-010
vernier = 0.0011585
vernier = 0.00154467
Gmin = 1.51874e-010
vernier = 0.00205956
Gmin = 1.51172e-010
vernier = 0.00274608
vernier = 0.00366143
vernier = 0.00183072
vernier = 0.000915358
Gmin = 1.50517e-010
vernier = 0.00122048
Gmin = 1.50104e-010
vernier = 0.0016273
vernier = 0.00216974
Gmin = 1.49414e-010
vernier = 0.00289298
vernier = 0.00385731
vernier = 0.00192865
Gmin = 1.48606e-010
vernier = 0.000964327
vernier = 0.00128577
Gmin = 1.48236e-010
vernier = 0.00171436
vernier = 0.00228581
Gmin = 1.47592e-010
vernier = 0.00304775
Gmin = 1.46583e-010
vernier = 0.00406366
vernier = 0.00203183
vernier = 0.00101592
vernier = 0.00135455
Gmin = 1.46298e-010
vernier = 0.00180607
Gmin = 1.45705e-010
vernier = 0.00240809
vernier = 0.00321079
vernier = 0.0016054
vernier = 0.000802698
Gmin = 1.45151e-010
vernier = 0.00107026
Gmin = 1.44802e-010
vernier = 0.00142702
vernier = 0.00190269
Gmin = 1.44217e-010
vernier = 0.00253692
vernier = 0.00338256
vernier = 0.00169128
Gmin = 1.43533e-010
vernier = 0.000845639
vernier = 0.00112752
Gmin = 1.4322e-010
vernier = 0.00150336
vernier = 0.00200448
Gmin = 1.42674e-010
vernier = 0.00267264
Gmin = 1.41819e-010
vernier = 0.00356351
vernier = 0.00178176
vernier = 0.000890878
vernier = 0.00118784
Gmin = 1.41577e-010
vernier = 0.00158378
Gmin = 1.41073e-010
vernier = 0.00211171
vernier = 0.00281561
Gmin = 1.40232e-010
vernier = 0.00375415
vernier = 0.00187707
vernier = 0.000938537
Gmin = 1.39871e-010
vernier = 0.00125138
vernier = 0.00166851
Gmin = 1.39376e-010
vernier = 0.00222468
vernier = 0.00296624
Gmin = 1.3859e-010
vernier = 0.00148312
vernier = 0.000741559
vernier = 0.000988746
Gmin = 1.38393e-010
vernier = 0.00131833
Gmin = 1.37984e-010
vernier = 0.00175777
vernier = 0.00234369
Gmin = 1.37298e-010
vernier = 0.00312492
vernier = 0.00156246
vernier = 0.00078123
Gmin = 1.37004e-010
vernier = 0.00104164
vernier = 0.00138885
Gmin = 1.366e-010
vernier = 0.0018518
vernier = 0.00246907
Gmin = 1.35959e-010
vernier = 0.00329209
vernier = 0.00164605
vernier = 0.000823024
Gmin = 1.3554e-010
vernier = 0.00109736
vernier = 0.00146315
Gmin = 1.35162e-010
vernier = 0.00195087
Gmin = 1.34571e-010
vernier = 0.00260116
vernier = 0.00346821
vernier = 0.00173411
vernier = 0.000867053
Gmin = 1.34018e-010
vernier = 0.00115607
Gmin = 1.33669e-010
vernier = 0.00154143
vernier = 0.00205523
Gmin = 1.33087e-010
vernier = 0.00274031
vernier = 0.00365375
vernier = 0.00182687
Gmin = 1.32405e-010
vernier = 0.000913437
vernier = 0.00121792
Gmin = 1.32093e-010
vernier = 0.00162389
vernier = 0.00216518
Gmin = 1.31549e-010
vernier = 0.00288691
vernier = 0.00144345
vernier = 0.000721727
Gmin = 1.31194e-010
vernier = 0.000962303
vernier = 0.00128307
Gmin = 1.30873e-010
vernier = 0.00171076
Gmin = 1.30371e-010
vernier = 0.00228101
vernier = 0.00304135
vernier = 0.00152067
vernier = 0.000760337
Gmin = 1.29901e-010
vernier = 0.00101378
Gmin = 1.29605e-010
vernier = 0.00135171
vernier = 0.00180228
Gmin = 1.2911e-010
vernier = 0.00240304
vernier = 0.00320405
vernier = 0.00160203
Gmin = 1.28529e-010
vernier = 0.000801013
vernier = 0.00106802
Gmin = 1.28264e-010
vernier = 0.00142402
vernier = 0.0018987
Gmin = 1.278e-010
vernier = 0.00253159
Gmin = 1.27075e-010
vernier = 0.00337546
vernier = 0.00168773
vernier = 0.000843864
vernier = 0.00112515
Gmin = 1.26869e-010
vernier = 0.0015002
Gmin = 1.26442e-010
vernier = 0.00200027
vernier = 0.00266702
Gmin = 1.25727e-010
vernier = 0.00355603
vernier = 0.00177802
vernier = 0.000889008
Gmin = 1.25421e-010
vernier = 0.00118534
vernier = 0.00158046
Gmin = 1.25e-010
vernier = 0.00210728
vernier = 0.0028097
vernier = 0.00140485
Gmin = 1.24507e-010
vernier = 0.000702425
vernier = 0.000936567
Gmin = 1.24282e-010
vernier = 0.00124876
vernier = 0.00166501
Gmin = 1.23888e-010
vernier = 0.00222001
Gmin = 1.23271e-010
vernier = 0.00296001
vernier = 0.00148001
vernier = 0.000740003
vernier = 0.00098667
Gmin = 1.23096e-010
vernier = 0.00131556
Gmin = 1.22732e-010
vernier = 0.00175408
vernier = 0.00233877
Gmin = 1.22124e-010
vernier = 0.00311836
vernier = 0.00155918
vernier = 0.00077959
Gmin = 1.21862e-010
vernier = 0.00103945
vernier = 0.00138594
Gmin = 1.21504e-010
vernier = 0.00184792
vernier = 0.00246389
Gmin = 1.20935e-010
vernier = 0.00328518
vernier = 0.00164259
vernier = 0.000821296
Gmin = 1.20563e-010
vernier = 0.00109506
vernier = 0.00146008
Gmin = 1.20228e-010
vernier = 0.00194677
Gmin = 1.19703e-010
vernier = 0.0025957
vernier = 0.00129785
vernier = 0.000648924
vernier = 0.000865232
Gmin = 1.19554e-010
vernier = 0.00115364
Gmin = 1.19244e-010
vernier = 0.00153819
vernier = 0.00205092
Gmin = 1.18726e-010
vernier = 0.00273456
vernier = 0.00136728
vernier = 0.00068364
Gmin = 1.18503e-010
vernier = 0.000911519
vernier = 0.00121536
Gmin = 1.18197e-010
vernier = 0.00162048
vernier = 0.00216064
Gmin = 1.17711e-010
vernier = 0.00288085
vernier = 0.00144042
vernier = 0.000720212
Gmin = 1.17394e-010
vernier = 0.000960283
vernier = 0.00128038
Gmin = 1.17108e-010
vernier = 0.00170717
Gmin = 1.16659e-010
vernier = 0.00227622
vernier = 0.00303496
vernier = 0.00151748
vernier = 0.000758741
Gmin = 1.16239e-010
vernier = 0.00101165
Gmin = 1.15975e-010
vernier = 0.00134887
vernier = 0.0017985
Gmin = 1.15533e-010
vernier = 0.00239799
vernier = 0.00319732
vernier = 0.00159866
Gmin = 1.15015e-010
vernier = 0.000799331
vernier = 0.00106577
Gmin = 1.14777e-010
vernier = 0.00142103
vernier = 0.00189471
Gmin = 1.14364e-010
vernier = 0.00252628
vernier = 0.00126314
vernier = 0.00063157
Gmin = 1.14093e-010
vernier = 0.000842093
vernier = 0.00112279
Gmin = 1.13849e-010
vernier = 0.00149705
Gmin = 1.13467e-010
vernier = 0.00199607
vernier = 0.00266143
vernier = 0.00133071
vernier = 0.000665357
Gmin = 1.13109e-010
vernier = 0.000887142
Gmin = 1.12883e-010
vernier = 0.00118286
vernier = 0.00157714
Gmin = 1.12505e-010
vernier = 0.00210285
vernier = 0.0028038
vernier = 0.0014019
Gmin = 1.12063e-010
vernier = 0.000700951
vernier = 0.000934601
Gmin = 1.1186e-010
vernier = 0.00124613
vernier = 0.00166151
Gmin = 1.11506e-010
vernier = 0.00221535
Gmin = 1.10952e-010
vernier = 0.0029538
vernier = 0.0014769
vernier = 0.000738449
vernier = 0.000984599
Gmin = 1.10795e-010
vernier = 0.0013128
Gmin = 1.10469e-010
vernier = 0.0017504
vernier = 0.00233386
Gmin = 1.09922e-010
vernier = 0.00311182
vernier = 0.00155591
vernier = 0.000777954
Gmin = 1.09687e-010
vernier = 0.00103727
vernier = 0.00138303
Gmin = 1.09365e-010
vernier = 0.00184404
vernier = 0.00245872
vernier = 0.00122936
Gmin = 1.08988e-010
vernier = 0.000614679
vernier = 0.000819572
Gmin = 1.08815e-010
vernier = 0.00109276
vernier = 0.00145702
Gmin = 1.08513e-010
vernier = 0.00194269
Gmin = 1.0804e-010
vernier = 0.00259025
vernier = 0.00129512
vernier = 0.000647562
vernier = 0.000863416
Gmin = 1.07906e-010
vernier = 0.00115122
Gmin = 1.07627e-010
vernier = 0.00153496
vernier = 0.00204661
Gmin = 1.0716e-010
vernier = 0.00272882
vernier = 0.00136441
vernier = 0.000682205
Gmin = 1.06959e-010
vernier = 0.000909606
vernier = 0.00121281
Gmin = 1.06684e-010
vernier = 0.00161708
vernier = 0.0021561
Gmin = 1.06247e-010
vernier = 0.0028748
vernier = 0.0014374
vernier = 0.0007187
Gmin = 1.05961e-010
vernier = 0.000958267
vernier = 0.00127769
Gmin = 1.05703e-010
vernier = 0.00170358
Gmin = 1.05299e-010
vernier = 0.00227145
vernier = 0.00302859
vernier = 0.0015143
vernier = 0.000757148
Gmin = 1.04921e-010
vernier = 0.00100953
Gmin = 1.04683e-010
vernier = 0.00134604
vernier = 0.00179472
Gmin = 1.04284e-010
vernier = 0.00239296
vernier = 0.00119648
vernier = 0.00059824
Gmin = 1.04113e-010
vernier = 0.000797653
vernier = 0.00106354
Gmin = 1.03878e-010
vernier = 0.00141805
vernier = 0.00189073
Gmin = 1.03504e-010
vernier = 0.00252098
vernier = 0.00126049
vernier = 0.000630244
Gmin = 1.0326e-010
vernier = 0.000840325
vernier = 0.00112043
Gmin = 1.0304e-010
vernier = 0.00149391
Gmin = 1.02694e-010
vernier = 0.00199188
vernier = 0.00265584
vernier = 0.00132792
vernier = 0.00066396
Gmin = 1.02371e-010
vernier = 0.00088528
Gmin = 1.02167e-010
vernier = 0.00118037
vernier = 0.00157383
Gmin = 1.01826e-010
vernier = 0.00209844
vernier = 0.00279792
vernier = 0.00139896
Gmin = 1.01426e-010
vernier = 0.000699479
vernier = 0.000932639
Gmin = 1.01243e-010
vernier = 0.00124352
vernier = 0.00165802
Gmin = 1.00924e-010
vernier = 0.0022107
Gmin = 1.00423e-010
vernier = 0.0029476
vernier = 0.0014738
vernier = 0.000736899
vernier = 0.000982532
Gmin = 1.00281e-010
vernier = 0.00131004
Gmin = 9.99862e-011
vernier = 0.00174672
vernier = 0.00232896
vernier = 0.00116448
vernier = 0.000582241
Gmin = 9.97101e-011
vernier = 0.000776321
Gmin = 9.95361e-011
vernier = 0.00103509
vernier = 0.00138013
Gmin = 9.92446e-011
vernier = 0.00184017
vernier = 0.00245355
vernier = 0.00122678
Gmin = 9.89029e-011
vernier = 0.000613389
vernier = 0.000817851
Gmin = 9.87463e-011
vernier = 0.00109047
vernier = 0.00145396
Gmin = 9.8473e-011
vernier = 0.00193861
Gmin = 9.80445e-011
vernier = 0.00258481
vernier = 0.00129241
vernier = 0.000646203
vernier = 0.000861604
Gmin = 9.79232e-011
vernier = 0.0011488
Gmin = 9.76704e-011
vernier = 0.00153174
vernier = 0.00204232
Gmin = 9.72476e-011
vernier = 0.00272309
vernier = 0.00136155
vernier = 0.000680773
Gmin = 9.70657e-011
vernier = 0.000907697
vernier = 0.00121026
Gmin = 9.68164e-011
vernier = 0.00161368
vernier = 0.00215158
Gmin = 9.64202e-011
vernier = 0.00286877
vernier = 0.00143438
vernier = 0.000717192
Gmin = 9.61613e-011
vernier = 0.000956255
vernier = 0.00127501
Gmin = 9.59279e-011
vernier = 0.00170001
Gmin = 9.55618e-011
vernier = 0.00226668
vernier = 0.00113334
vernier = 0.000566669
vernier = 0.000755559
Gmin = 9.5458e-011
vernier = 0.00100741
Gmin = 9.52419e-011
vernier = 0.00134322
vernier = 0.00179095
Gmin = 9.48802e-011
vernier = 0.00238794
vernier = 0.00119397
vernier = 0.000596984
Gmin = 9.47246e-011
vernier = 0.000795979
vernier = 0.0010613
Gmin = 9.45113e-011
vernier = 0.00141507
vernier = 0.00188676
Gmin = 9.4172e-011
vernier = 0.00251568
vernier = 0.00125784
vernier = 0.000628921
Gmin = 9.39502e-011
vernier = 0.000838561
vernier = 0.00111808
Gmin = 9.37502e-011
vernier = 0.00149077
Gmin = 9.34363e-011
vernier = 0.0019877
vernier = 0.00265026
vernier = 0.00132513
vernier = 0.000662566
Gmin = 9.31428e-011
vernier = 0.000883421
Gmin = 9.29579e-011
vernier = 0.00117789
vernier = 0.00157053
Gmin = 9.26482e-011
vernier = 0.00209403
vernier = 0.00279204
vernier = 0.00139602
Gmin = 9.22852e-011
vernier = 0.000698011
vernier = 0.000930681
Gmin = 9.2119e-011
vernier = 0.00124091
vernier = 0.00165454
Gmin = 9.1829e-011
vernier = 0.00220606
vernier = 0.00110303
vernier = 0.000551514
Gmin = 9.16393e-011
vernier = 0.000735352
vernier = 0.00098047
Gmin = 9.14682e-011
vernier = 0.00130729
Gmin = 9.11996e-011
vernier = 0.00174306
vernier = 0.00232407
vernier = 0.00116204
vernier = 0.000581019
Gmin = 9.09483e-011
vernier = 0.000774691
Gmin = 9.07899e-011
vernier = 0.00103292
vernier = 0.00137723
Gmin = 9.05246e-011
vernier = 0.0018363
vernier = 0.0024484
vernier = 0.0012242
Gmin = 9.02135e-011
vernier = 0.000612101
vernier = 0.000816135
Gmin = 9.0071e-011
vernier = 0.00108818
vernier = 0.00145091
Gmin = 8.98223e-011
vernier = 0.00193454
Gmin = 8.94322e-011
vernier = 0.00257939
vernier = 0.00128969
vernier = 0.000644846
vernier = 0.000859795
Gmin = 8.93218e-011
vernier = 0.00114639
Gmin = 8.90917e-011
vernier = 0.00152852
vernier = 0.00203803
Gmin = 8.87068e-011
vernier = 0.00271737
vernier = 0.00135869
vernier = 0.000679344
Gmin = 8.85412e-011
vernier = 0.000905791
vernier = 0.00120772
Gmin = 8.83143e-011
vernier = 0.00161029
vernier = 0.00214706
vernier = 0.00107353
Gmin = 8.80481e-011
vernier = 0.000536765
vernier = 0.000715686
Gmin = 8.79261e-011
vernier = 0.000954248
vernier = 0.00127233
Gmin = 8.77132e-011
vernier = 0.00169644
Gmin = 8.73791e-011
vernier = 0.00226192
vernier = 0.00113096
vernier = 0.00056548
vernier = 0.000753973
Gmin = 8.72844e-011
vernier = 0.0010053
Gmin = 8.70872e-011
vernier = 0.0013404
vernier = 0.00178719
Gmin = 8.67572e-011
vernier = 0.00238292
vernier = 0.00119146
vernier = 0.000595731
Gmin = 8.66152e-011
vernier = 0.000794308
vernier = 0.00105908
Gmin = 8.64205e-011
vernier = 0.0014121
vernier = 0.0018828
Gmin = 8.6111e-011
vernier = 0.0025104
vernier = 0.0012552
vernier = 0.000627601
Gmin = 8.59086e-011
vernier = 0.000836801
vernier = 0.00111573
Gmin = 8.57261e-011
vernier = 0.00148765
Gmin = 8.54397e-011
vernier = 0.00198353
vernier = 0.000991763
vernier = 0.000495882
Gmin = 8.52387e-011
vernier = 0.000661175
vernier = 0.000881567
Gmin = 8.50956e-011
vernier = 0.00117542
Gmin = 8.48709e-011
vernier = 0.00156723
vernier = 0.00208964
vernier = 0.00104482
vernier = 0.00052241
Gmin = 8.46606e-011
vernier = 0.000696546
Gmin = 8.4528e-011
vernier = 0.000928728
vernier = 0.0012383
Gmin = 8.43059e-011
vernier = 0.00165107
vernier = 0.00220143
vernier = 0.00110071
Gmin = 8.40453e-011
vernier = 0.000550357
vernier = 0.000733809
Gmin = 8.39259e-011
vernier = 0.000978411
vernier = 0.00130455
Gmin = 8.37175e-011
vernier = 0.0017394
Gmin = 8.33906e-011
vernier = 0.0023192
vernier = 0.0011596
vernier = 0.000579799
vernier = 0.000773065
Gmin = 8.3298e-011
vernier = 0.00103075
Gmin = 8.3105e-011
vernier = 0.00137434
vernier = 0.00183245
Gmin = 8.27821e-011
vernier = 0.00244326
vernier = 0.00122163
vernier = 0.000610816
Gmin = 8.26432e-011
vernier = 0.000814421
vernier = 0.00108589
Gmin = 8.24528e-011
vernier = 0.00144786
vernier = 0.00193048
Gmin = 8.21499e-011
vernier = 0.00257397
vernier = 0.00128699
vernier = 0.000643493
Gmin = 8.1952e-011
vernier = 0.00085799
vernier = 0.00114399
Gmin = 8.17735e-011
vernier = 0.00152532
Gmin = 8.14934e-011
vernier = 0.00203375
vernier = 0.00101688
vernier = 0.000508438
vernier = 0.000677917
Gmin = 8.1414e-011
vernier = 0.00090389
Gmin = 8.12486e-011
vernier = 0.00120519
vernier = 0.00160691
Gmin = 8.09717e-011
vernier = 0.00214255
vernier = 0.00107128
vernier = 0.000535638
Gmin = 8.08525e-011
vernier = 0.000714184
vernier = 0.000952245
Gmin = 8.06891e-011
vernier = 0.00126966
vernier = 0.00169288
Gmin = 8.04292e-011
vernier = 0.00225717
vernier = 0.00112859
vernier = 0.000564293
Gmin = 8.02592e-011
vernier = 0.00075239
vernier = 0.00100319
Gmin = 8.01059e-011
vernier = 0.00133758
Gmin = 7.98652e-011
vernier = 0.00178344
vernier = 0.00237792
vernier = 0.00118896
vernier = 0.000594481
Gmin = 7.964e-011
vernier = 0.000792641
Gmin = 7.94981e-011
vernier = 0.00105685
vernier = 0.00140914
Gmin = 7.92605e-011
vernier = 0.00187885
vernier = 0.00250513
vernier = 0.00125257
Gmin = 7.89818e-011
vernier = 0.000626283
vernier = 0.000835044
Gmin = 7.88541e-011
vernier = 0.00111339
vernier = 0.00148452
Gmin = 7.86313e-011
vernier = 0.00197936
vernier = 0.000989681
vernier = 0.000494841
Gmin = 7.84856e-011
vernier = 0.000659787
vernier = 0.000879716
Gmin = 7.83541e-011
vernier = 0.00117295
Gmin = 7.81476e-011
vernier = 0.00156394
vernier = 0.00208525
vernier = 0.00104263
vernier = 0.000521313
Gmin = 7.79544e-011
vernier = 0.000695084
Gmin = 7.78326e-011
vernier = 0.000926778
vernier = 0.0012357
Gmin = 7.76285e-011
vernier = 0.0016476
vernier = 0.00219681
vernier = 0.0010984
Gmin = 7.73891e-011
vernier = 0.000549201
vernier = 0.000732268
Gmin = 7.72794e-011
vernier = 0.000976358
vernier = 0.00130181
Gmin = 7.70879e-011
vernier = 0.00173575
Gmin = 7.67874e-011
vernier = 0.00231433
vernier = 0.00115716
vernier = 0.000578582
vernier = 0.000771442
Gmin = 7.67023e-011
vernier = 0.00102859
Gmin = 7.65251e-011
vernier = 0.00137145
vernier = 0.0018286
Gmin = 7.62283e-011
vernier = 0.00243814
vernier = 0.00121907
vernier = 0.000609534
Gmin = 7.61007e-011
vernier = 0.000812712
vernier = 0.00108362
Gmin = 7.59257e-011
vernier = 0.00144482
vernier = 0.00192643
vernier = 0.000963213
Gmin = 7.57203e-011
vernier = 0.000481607
vernier = 0.000642142
Gmin = 7.56262e-011
vernier = 0.000856189
vernier = 0.00114159
Gmin = 7.54618e-011
vernier = 0.00152211
Gmin = 7.52038e-011
vernier = 0.00202948
vernier = 0.00101474
vernier = 0.000507371
vernier = 0.000676494
Gmin = 7.51307e-011
vernier = 0.000901992
Gmin = 7.49784e-011
vernier = 0.00120266
vernier = 0.00160354
Gmin = 7.47234e-011
vernier = 0.00213805
vernier = 0.00106903
vernier = 0.000534514
Gmin = 7.46137e-011
vernier = 0.000712685
vernier = 0.000950246
Gmin = 7.44632e-011
vernier = 0.00126699
vernier = 0.00168933
Gmin = 7.42238e-011
vernier = 0.00225243
vernier = 0.00112622
vernier = 0.000563108
Gmin = 7.40673e-011
vernier = 0.000750811
vernier = 0.00100108
Gmin = 7.39261e-011
vernier = 0.00133477
Gmin = 7.37044e-011
vernier = 0.0017797
vernier = 0.00237293
vernier = 0.00118647
vernier = 0.000593233
Gmin = 7.34971e-011
vernier = 0.000790977
Gmin = 7.33664e-011
vernier = 0.00105464
vernier = 0.00140618
Gmin = 7.31475e-011
vernier = 0.00187491
vernier = 0.000937453
vernier = 0.000468727
Gmin = 7.30533e-011
vernier = 0.000624969
vernier = 0.000833291
Gmin = 7.29241e-011
vernier = 0.00111105
vernier = 0.00148141
Gmin = 7.27185e-011
vernier = 0.00197521
vernier = 0.000987604
vernier = 0.000493802
Gmin = 7.2584e-011
vernier = 0.000658402
vernier = 0.00087787
Gmin = 7.24626e-011
vernier = 0.00117049
Gmin = 7.2272e-011
vernier = 0.00156066
vernier = 0.00208087
vernier = 0.00104044
vernier = 0.000520219
Gmin = 7.20937e-011
vernier = 0.000693625
Gmin = 7.19813e-011
vernier = 0.000924833
vernier = 0.00123311
Gmin = 7.1793e-011
vernier = 0.00164415
vernier = 0.00219219
vernier = 0.0010961
Gmin = 7.1572e-011
vernier = 0.000548049
vernier = 0.000730731
Gmin = 7.14708e-011
vernier = 0.000974308
vernier = 0.00129908
Gmin = 7.1294e-011
vernier = 0.0017321
Gmin = 7.10168e-011
vernier = 0.00230947
vernier = 0.00115473
vernier = 0.000577367
vernier = 0.000769823
Gmin = 7.09382e-011
vernier = 0.00102643
Gmin = 7.07746e-011
vernier = 0.00136857
vernier = 0.00182476
vernier = 0.000912382
vernier = 0.000456191
Gmin = 7.06214e-011
vernier = 0.000608254
Gmin = 7.05249e-011
vernier = 0.000811006
vernier = 0.00108134
Gmin = 7.0363e-011
vernier = 0.00144179
vernier = 0.00192238
vernier = 0.000961191
Gmin = 7.01731e-011
vernier = 0.000480596
vernier = 0.000640794
Gmin = 7.0086e-011
vernier = 0.000854392
vernier = 0.00113919
Gmin = 6.9934e-011
vernier = 0.00151892
Gmin = 6.96954e-011
vernier = 0.00202522
vernier = 0.00101261
vernier = 0.000506306
vernier = 0.000675074
Gmin = 6.96279e-011
vernier = 0.000900099
Gmin = 6.9487e-011
vernier = 0.00120013
vernier = 0.00160018
Gmin = 6.92512e-011
vernier = 0.00213357
vernier = 0.00106678
vernier = 0.000533392
Gmin = 6.91497e-011
vernier = 0.000711189
vernier = 0.000948251
Gmin = 6.90105e-011
vernier = 0.00126433
vernier = 0.00168578
Gmin = 6.87891e-011
vernier = 0.0022477
vernier = 0.00112385
vernier = 0.000561926
Gmin = 6.86443e-011
vernier = 0.000749235
vernier = 0.000998979
Gmin = 6.85138e-011
vernier = 0.00133197
Gmin = 6.83088e-011
vernier = 0.00177596
vernier = 0.000887981
vernier = 0.000443991
vernier = 0.000591987
Gmin = 6.82507e-011
vernier = 0.000789316
Gmin = 6.81296e-011
vernier = 0.00105242
vernier = 0.00140323
Gmin = 6.79267e-011
vernier = 0.00187097
vernier = 0.000935485
vernier = 0.000467743
Gmin = 6.78394e-011
vernier = 0.000623657
vernier = 0.000831542
Gmin = 6.77197e-011
vernier = 0.00110872
vernier = 0.0014783
Gmin = 6.75291e-011
vernier = 0.00197106
vernier = 0.000985531
vernier = 0.000492765
Gmin = 6.74045e-011
vernier = 0.00065702
vernier = 0.000876027
Gmin = 6.7292e-011
vernier = 0.00116804
Gmin = 6.71154e-011
vernier = 0.00155738
vernier = 0.00207651
vernier = 0.00103825
vernier = 0.000519127
Gmin = 6.69502e-011
vernier = 0.000692169
Gmin = 6.6846e-011
vernier = 0.000922891
vernier = 0.00123052
Gmin = 6.66715e-011
vernier = 0.00164069
vernier = 0.00218759
vernier = 0.0010938
Gmin = 6.64667e-011
vernier = 0.000546898
vernier = 0.000729197
Gmin = 6.63729e-011
vernier = 0.000972263
vernier = 0.00129635
Gmin = 6.62091e-011
vernier = 0.00172847
vernier = 0.000864233
vernier = 0.000432117
Gmin = 6.61019e-011
vernier = 0.000576155
vernier = 0.000768207
Gmin = 6.60052e-011
vernier = 0.00102428
Gmin = 6.58533e-011
vernier = 0.0013657
vernier = 0.00182093
vernier = 0.000910467
vernier = 0.000455233
Gmin = 6.5711e-011
vernier = 0.000606978
Gmin = 6.56214e-011
vernier = 0.000809303
vernier = 0.00107907
Gmin = 6.54711e-011
vernier = 0.00143876
vernier = 0.00191835
vernier = 0.000959174
Gmin = 6.52947e-011
vernier = 0.000479587
vernier = 0.000639449
Gmin = 6.52139e-011
vernier = 0.000852598
vernier = 0.0011368
Gmin = 6.50727e-011
vernier = 0.00151573
Gmin = 6.48512e-011
vernier = 0.00202097
vernier = 0.00101049
vernier = 0.000505243
vernier = 0.000673657
Gmin = 6.47885e-011
vernier = 0.000898209
Gmin = 6.46577e-011
vernier = 0.00119761
vernier = 0.00159682
Gmin = 6.44387e-011
vernier = 0.00212909
vernier = 0.00106454
vernier = 0.000532272
Gmin = 6.43444e-011
vernier = 0.000709696
vernier = 0.000946261
Gmin = 6.42152e-011
vernier = 0.00126168
vernier = 0.00168224
vernier = 0.00084112
Gmin = 6.40635e-011
vernier = 0.00042056
vernier = 0.000560747
Gmin = 6.39939e-011
vernier = 0.000747662
vernier = 0.000996882
Gmin = 6.38725e-011
vernier = 0.00132918
Gmin = 6.36818e-011
vernier = 0.00177223
vernier = 0.000886117
vernier = 0.000443059
vernier = 0.000590745
Gmin = 6.36277e-011
vernier = 0.000787659
Gmin = 6.3515e-011
vernier = 0.00105021
vernier = 0.00140028
Gmin = 6.33264e-011
vernier = 0.00186704
vernier = 0.000933521
vernier = 0.000466761
Gmin = 6.32451e-011
vernier = 0.000622348
vernier = 0.000829796
Gmin = 6.31337e-011
vernier = 0.0011064
vernier = 0.00147519
Gmin = 6.29565e-011
vernier = 0.00196692
vernier = 0.000983462
vernier = 0.000491731
Gmin = 6.28405e-011
vernier = 0.000655641
vernier = 0.000874188
Gmin = 6.27359e-011
vernier = 0.00116558
Gmin = 6.25716e-011
vernier = 0.00155411
vernier = 0.00207215
vernier = 0.00103607
vernier = 0.000518037
Gmin = 6.24178e-011
vernier = 0.000690716
Gmin = 6.23209e-011
vernier = 0.000920954
vernier = 0.00122794
Gmin = 6.21585e-011
vernier = 0.00163725
vernier = 0.000818625
vernier = 0.000409313
Gmin = 6.20886e-011
vernier = 0.00054575
vernier = 0.000727667
Gmin = 6.19927e-011
vernier = 0.000970222
vernier = 0.00129363
Gmin = 6.184e-011
vernier = 0.00172484
vernier = 0.000862419
vernier = 0.000431209
Gmin = 6.17401e-011
vernier = 0.000574946
vernier = 0.000766594
Gmin = 6.165e-011
vernier = 0.00102213
Gmin = 6.15084e-011
vernier = 0.00136283
vernier = 0.00181711
vernier = 0.000908555
vernier = 0.000454278
Gmin = 6.13758e-011
vernier = 0.000605703
Gmin = 6.12922e-011
vernier = 0.000807604
vernier = 0.00107681
Gmin = 6.11521e-011
vernier = 0.00143574
vernier = 0.00191432
vernier = 0.00095716
Gmin = 6.09878e-011
vernier = 0.00047858
vernier = 0.000638107
Gmin = 6.09124e-011
vernier = 0.000850809
vernier = 0.00113441
Gmin = 6.07809e-011
vernier = 0.00151255
Gmin = 6.05744e-011
vernier = 0.00201673
vernier = 0.00100836
vernier = 0.000504182
vernier = 0.000672243
Gmin = 6.05159e-011
vernier = 0.000896324
Gmin = 6.0394e-011
vernier = 0.0011951
vernier = 0.00159346
Gmin = 6.01899e-011
vernier = 0.00212462
vernier = 0.00106231
vernier = 0.000531155
Gmin = 6.0102e-011
vernier = 0.000708206
vernier = 0.000944274
Gmin = 5.99816e-011
vernier = 0.00125903
vernier = 0.00167871
vernier = 0.000839354
Gmin = 5.98401e-011
vernier = 0.000419677
vernier = 0.00055957
Gmin = 5.97753e-011
vernier = 0.000746092
vernier = 0.00099479
Gmin = 5.96621e-011
vernier = 0.00132639
Gmin = 5.94843e-011
vernier = 0.00176851
vernier = 0.000884257
vernier = 0.000442129
vernier = 0.000589505
Gmin = 5.94339e-011
vernier = 0.000786006
Gmin = 5.93289e-011
vernier = 0.00104801
vernier = 0.00139734
Gmin = 5.9153e-011
vernier = 0.00186312
vernier = 0.000931562
vernier = 0.000465781
Gmin = 5.90773e-011
vernier = 0.000621041
vernier = 0.000828055
Gmin = 5.89735e-011
vernier = 0.00110407
vernier = 0.0014721
Gmin = 5.88082e-011
vernier = 0.00196279
vernier = 0.000981397
vernier = 0.000490699
Gmin = 5.87001e-011
vernier = 0.000654265
vernier = 0.000872353
Gmin = 5.86026e-011
vernier = 0.00116314
Gmin = 5.84495e-011
vernier = 0.00155085
vernier = 0.0020678
vernier = 0.0010339
vernier = 0.000516949
Gmin = 5.83062e-011
vernier = 0.000689266
Gmin = 5.82158e-011
vernier = 0.000919021
vernier = 0.00122536
Gmin = 5.80644e-011
vernier = 0.00163381
vernier = 0.000816907
vernier = 0.000408453
Gmin = 5.79993e-011
vernier = 0.000544604
vernier = 0.000726139
Gmin = 5.79098e-011
vernier = 0.000968185
vernier = 0.00129091
Gmin = 5.77675e-011
vernier = 0.00172122
vernier = 0.000860609
vernier = 0.000430304
Gmin = 5.76744e-011
vernier = 0.000573739
vernier = 0.000764985
Gmin = 5.75904e-011
vernier = 0.00101998
Gmin = 5.74584e-011
vernier = 0.00135997
vernier = 0.0018133
vernier = 0.000906648
vernier = 0.000453324
Gmin = 5.73348e-011
vernier = 0.000604432
Gmin = 5.72569e-011
vernier = 0.000805909
vernier = 0.00107455
Gmin = 5.71263e-011
vernier = 0.00143273
vernier = 0.0019103
vernier = 0.000955151
Gmin = 5.69731e-011
vernier = 0.000477575
vernier = 0.000636767
Gmin = 5.69028e-011
vernier = 0.000849023
vernier = 0.00113203
Gmin = 5.67802e-011
vernier = 0.00150937
Gmin = 5.65877e-011
vernier = 0.0020125
vernier = 0.00100625
vernier = 0.000503124
vernier = 0.000670832
Gmin = 5.65332e-011
vernier = 0.000894442
Gmin = 5.64195e-011
vernier = 0.00119259
vernier = 0.00159012
vernier = 0.00079506
vernier = 0.000596295
Gmin = 5.63103e-011
vernier = 0.000795059
Gmin = 5.62097e-011
vernier = 0.00106008
vernier = 0.00141344
Gmin = 5.60411e-011
vernier = 0.00188458
vernier = 0.000942292
vernier = 0.000471146
Gmin = 5.59686e-011
vernier = 0.000628194
vernier = 0.000837592
Gmin = 5.58691e-011
vernier = 0.00111679
vernier = 0.00148905
Gmin = 5.57107e-011
vernier = 0.0019854
vernier = 0.000992701
vernier = 0.000496351
Gmin = 5.56071e-011
vernier = 0.000661801
vernier = 0.000882401
Gmin = 5.55137e-011
vernier = 0.00117653
Gmin = 5.53669e-011
vernier = 0.00156871
vernier = 0.000784356
vernier = 0.000588267
vernier = 0.000784356
Gmin = 5.53046e-011
vernier = 0.00104581
Gmin = 5.51746e-011
vernier = 0.00139441
vernier = 0.00185921
vernier = 0.000929606
vernier = 0.000464803
Gmin = 5.50529e-011
vernier = 0.000619737
Gmin = 5.49762e-011
vernier = 0.000826316
vernier = 0.00110175
Gmin = 5.48477e-011
vernier = 0.00146901
vernier = 0.00195867
vernier = 0.000979337
Gmin = 5.46968e-011
vernier = 0.000489668
vernier = 0.000652891
Gmin = 5.46277e-011
vernier = 0.000870521
vernier = 0.00116069
Gmin = 5.4507e-011
vernier = 0.00154759
vernier = 0.000773796
vernier = 0.000580347
Gmin = 5.44201e-011
vernier = 0.000773796
vernier = 0.00103173
Gmin = 5.43132e-011
vernier = 0.00137564
Gmin = 5.41453e-011
vernier = 0.00183418
vernier = 0.000917091
vernier = 0.000458545
vernier = 0.000611394
Gmin = 5.40978e-011
vernier = 0.000815191
Gmin = 5.39986e-011
vernier = 0.00108692
vernier = 0.00144923
Gmin = 5.38326e-011
vernier = 0.0019323
vernier = 0.000966152
vernier = 0.000483076
Gmin = 5.37612e-011
vernier = 0.000644101
vernier = 0.000858801
Gmin = 5.36632e-011
vernier = 0.00114507
vernier = 0.00152676
vernier = 0.000763379
Gmin = 5.35481e-011
vernier = 0.000572534
vernier = 0.000763378
Gmin = 5.3469e-011
vernier = 0.00101784
vernier = 0.00135712
Gmin = 5.33308e-011
vernier = 0.00180949
vernier = 0.000904744
vernier = 0.000452372
Gmin = 5.32404e-011
vernier = 0.000603163
vernier = 0.000804217
Gmin = 5.31589e-011
vernier = 0.00107229
Gmin = 5.30308e-011
vernier = 0.00142972
vernier = 0.00190629
vernier = 0.000953145
vernier = 0.000476572
Gmin = 5.29109e-011
vernier = 0.00063543
Gmin = 5.28353e-011
vernier = 0.000847239
vernier = 0.00112965
Gmin = 5.27087e-011
vernier = 0.0015062
vernier = 0.00200827
vernier = 0.00100413
Gmin = 5.256e-011
vernier = 0.000502067
vernier = 0.000669423
Gmin = 5.24919e-011
vernier = 0.000892564
vernier = 0.00119008
Gmin = 5.2373e-011
vernier = 0.00158678
vernier = 0.00079339
vernier = 0.000595042
Gmin = 5.22874e-011
vernier = 0.00079339
vernier = 0.00105785
Gmin = 5.2182e-011
vernier = 0.00141047
Gmin = 5.20167e-011
vernier = 0.00188063
vernier = 0.000940313
vernier = 0.000470156
vernier = 0.000626875
Gmin = 5.19699e-011
vernier = 0.000835833
Gmin = 5.18723e-011
vernier = 0.00111444
vernier = 0.00148592
Gmin = 5.17087e-011
vernier = 0.00198123
vernier = 0.000990616
vernier = 0.000495308
Gmin = 5.16384e-011
vernier = 0.000660411
vernier = 0.000880547
Gmin = 5.15418e-011
vernier = 0.00117406
vernier = 0.00156542
vernier = 0.000782708
Gmin = 5.14285e-011
vernier = 0.000587031
vernier = 0.000782708
Gmin = 5.13506e-011
vernier = 0.00104361
vernier = 0.00139148
Gmin = 5.12146e-011
vernier = 0.00185531
vernier = 0.000927654
vernier = 0.000463827
Gmin = 5.11256e-011
vernier = 0.000618436
vernier = 0.000824581
Gmin = 5.10453e-011
vernier = 0.00109944
Gmin = 5.09192e-011
vernier = 0.00146592
vernier = 0.00195456
vernier = 0.00097728
vernier = 0.00048864
Gmin = 5.08012e-011
vernier = 0.00065152
Gmin = 5.07268e-011
vernier = 0.000868693
vernier = 0.00115826
Gmin = 5.06021e-011
vernier = 0.00154434
vernier = 0.000772171
vernier = 0.000579128
Gmin = 5.05362e-011
vernier = 0.000772171
vernier = 0.00102956
Gmin = 5.04258e-011
vernier = 0.00137275
vernier = 0.00183033
vernier = 0.000915165
Gmin = 5.02962e-011
vernier = 0.000457582
vernier = 0.00061011
Gmin = 5.02367e-011
vernier = 0.000813479
vernier = 0.00108464
Gmin = 5.0133e-011
vernier = 0.00144618
Gmin = 4.99702e-011
vernier = 0.00192825
vernier = 0.000964123
vernier = 0.000482061
vernier = 0.000642748
Gmin = 4.9924e-011
vernier = 0.000856998
Gmin = 4.98279e-011
vernier = 0.00114266
vernier = 0.00152355
vernier = 0.000761775
vernier = 0.000571332
Gmin = 4.97354e-011
vernier = 0.000761775
Gmin = 4.96503e-011
vernier = 0.0010157
vernier = 0.00135427
Gmin = 4.95076e-011
vernier = 0.00180569
vernier = 0.000902844
vernier = 0.000451422
Gmin = 4.94462e-011
vernier = 0.000601896
vernier = 0.000802528
Gmin = 4.93619e-011
vernier = 0.00107004
vernier = 0.00142672
Gmin = 4.92279e-011
vernier = 0.00190229
vernier = 0.000951143
vernier = 0.000475572
Gmin = 4.91402e-011
vernier = 0.000634095
vernier = 0.00084546
Gmin = 4.90611e-011
vernier = 0.00112728
Gmin = 4.89368e-011
vernier = 0.00150304
vernier = 0.00075152
vernier = 0.00056364
vernier = 0.00075152
Gmin = 4.8884e-011
vernier = 0.00100203
Gmin = 4.87739e-011
vernier = 0.00133603
vernier = 0.00178138
vernier = 0.000890689
vernier = 0.000445345
Gmin = 4.86708e-011
vernier = 0.000593793
Gmin = 4.86059e-011
vernier = 0.000791723
vernier = 0.00105563
Gmin = 4.8497e-011
vernier = 0.00140751
vernier = 0.00187668
vernier = 0.000938338
Gmin = 4.83692e-011
vernier = 0.000469169
vernier = 0.000625559
Gmin = 4.83106e-011
vernier = 0.000834078
vernier = 0.0011121
Gmin = 4.82083e-011
vernier = 0.0014828
vernier = 0.000741402
vernier = 0.000556052
Gmin = 4.81346e-011
vernier = 0.000741402
vernier = 0.000988536
Gmin = 4.8044e-011
vernier = 0.00131805
Gmin = 4.79018e-011
vernier = 0.0017574
vernier = 0.000878698
vernier = 0.000439349
vernier = 0.000585798
Gmin = 4.78615e-011
vernier = 0.000781064
Gmin = 4.77774e-011
vernier = 0.00104142
vernier = 0.00138856
Gmin = 4.76367e-011
vernier = 0.00185141
vernier = 0.000925705
vernier = 0.000462853
Gmin = 4.75761e-011
vernier = 0.000617137
vernier = 0.000822849
Gmin = 4.7493e-011
vernier = 0.00109713
vernier = 0.00146284
vernier = 0.000731421
Gmin = 4.73954e-011
vernier = 0.000548566
vernier = 0.000731421
Gmin = 4.73283e-011
vernier = 0.000975227
vernier = 0.0013003
Gmin = 4.72111e-011
vernier = 0.00173374
vernier = 0.000866868
vernier = 0.000433434
Gmin = 4.71345e-011
vernier = 0.000577912
vernier = 0.000770549
Gmin = 4.70653e-011
vernier = 0.0010274
Gmin = 4.69566e-011
vernier = 0.00136986
vernier = 0.00182649
vernier = 0.000913243
vernier = 0.000456621
Gmin = 4.68549e-011
vernier = 0.000608828
Gmin = 4.67908e-011
vernier = 0.000811771
vernier = 0.00108236
Gmin = 4.66833e-011
vernier = 0.00144315
vernier = 0.0019242
vernier = 0.000962098
Gmin = 4.65572e-011
vernier = 0.000481049
vernier = 0.000641399
Gmin = 4.64994e-011
vernier = 0.000855198
vernier = 0.00114026
Gmin = 4.63984e-011
vernier = 0.00152035
vernier = 0.000760176
vernier = 0.000570132
Gmin = 4.63257e-011
vernier = 0.000760175
vernier = 0.00101357
Gmin = 4.62363e-011
vernier = 0.00135142
Gmin = 4.6096e-011
vernier = 0.0018019
vernier = 0.000900948
vernier = 0.000450474
vernier = 0.000600632
Gmin = 4.60562e-011
vernier = 0.000800842
Gmin = 4.59733e-011
vernier = 0.00106779
vernier = 0.00142372
Gmin = 4.58344e-011
vernier = 0.00189829
vernier = 0.000949146
vernier = 0.000474573
Gmin = 4.57746e-011
vernier = 0.000632764
vernier = 0.000843684
Gmin = 4.56927e-011
vernier = 0.00112491
vernier = 0.00149988
vernier = 0.000749941
Gmin = 4.55964e-011
vernier = 0.000562456
vernier = 0.000749941
Gmin = 4.55302e-011
vernier = 0.000999921
vernier = 0.00133323
Gmin = 4.54146e-011
vernier = 0.00177764
vernier = 0.000888819
vernier = 0.000444409
Gmin = 4.5339e-011
vernier = 0.000592546
vernier = 0.000790061
Gmin = 4.52708e-011
vernier = 0.00105341
Gmin = 4.51636e-011
vernier = 0.00140455
vernier = 0.00187273
vernier = 0.000936367
vernier = 0.000468184
Gmin = 4.50633e-011
vernier = 0.000624245
Gmin = 4.50001e-011
vernier = 0.000832326
vernier = 0.00110977
Gmin = 4.48941e-011
vernier = 0.00147969
vernier = 0.000739845
vernier = 0.000554884
Gmin = 4.48381e-011
vernier = 0.000739845
vernier = 0.00098646
Gmin = 4.47442e-011
vernier = 0.00131528
vernier = 0.00175371
vernier = 0.000876853
Gmin = 4.4634e-011
vernier = 0.000438426
vernier = 0.000584568
Gmin = 4.45835e-011
vernier = 0.000779424
vernier = 0.00103923
Gmin = 4.44953e-011
vernier = 0.00138564
Gmin = 4.43568e-011
vernier = 0.00184752
vernier = 0.000923761
vernier = 0.000461881
vernier = 0.000615841
Gmin = 4.43175e-011
vernier = 0.000821121
Gmin = 4.42358e-011
vernier = 0.00109483
vernier = 0.00145977
vernier = 0.000729885
vernier = 0.000547413
Gmin = 4.41571e-011
vernier = 0.000729884
Gmin = 4.40847e-011
vernier = 0.000973179
vernier = 0.00129757
Gmin = 4.39633e-011
vernier = 0.0017301
vernier = 0.000865048
vernier = 0.000432524
Gmin = 4.39111e-011
vernier = 0.000576698
vernier = 0.000768931
Gmin = 4.38394e-011
vernier = 0.00102524
vernier = 0.00136699
Gmin = 4.37253e-011
vernier = 0.00182265
vernier = 0.000911325
vernier = 0.000455662
Gmin = 4.36507e-011
vernier = 0.00060755
vernier = 0.000810066
Gmin = 4.35833e-011
vernier = 0.00108009
Gmin = 4.34775e-011
vernier = 0.00144012
vernier = 0.000720058
vernier = 0.000540044
vernier = 0.000720058
Gmin = 4.34326e-011
vernier = 0.000960077
Gmin = 4.33388e-011
vernier = 0.0012801
vernier = 0.0017068
vernier = 0.000853402
vernier = 0.000426701
Gmin = 4.32511e-011
vernier = 0.000568934
Gmin = 4.31958e-011
vernier = 0.000758579
vernier = 0.00101144
Gmin = 4.31031e-011
vernier = 0.00134858
vernier = 0.00179811
vernier = 0.000899056
Gmin = 4.29942e-011
vernier = 0.000449528
vernier = 0.00059937
Gmin = 4.29443e-011
vernier = 0.00079916
vernier = 0.00106555
Gmin = 4.28572e-011
vernier = 0.00142073
vernier = 0.000710364
vernier = 0.000532773
Gmin = 4.27945e-011
vernier = 0.000710364
vernier = 0.000947152
Gmin = 4.27173e-011
vernier = 0.00126287
Gmin = 4.25961e-011
vernier = 0.00168382
vernier = 0.000841912
vernier = 0.000420956
vernier = 0.000561275
Gmin = 4.25617e-011
vernier = 0.000748366
Gmin = 4.24901e-011
vernier = 0.000997821
vernier = 0.00133043
Gmin = 4.23702e-011
vernier = 0.0017739
vernier = 0.000886952
vernier = 0.000443476
Gmin = 4.23185e-011
vernier = 0.000591301
vernier = 0.000788401
Gmin = 4.22477e-011
vernier = 0.0010512
vernier = 0.0014016
Gmin = 4.2135e-011
vernier = 0.0018688
vernier = 0.000934401
vernier = 0.0004672
Gmin = 4.20613e-011
vernier = 0.000622934
vernier = 0.000830578
Gmin = 4.19947e-011
vernier = 0.00110744
Gmin = 4.18902e-011
vernier = 0.00147658
vernier = 0.000738291
vernier = 0.000553718
vernier = 0.000738291
Gmin = 4.18458e-011
vernier = 0.000984388
Gmin = 4.17532e-011
vernier = 0.00131252
vernier = 0.00175002
vernier = 0.000875011
vernier = 0.000437505
Gmin = 4.16666e-011
vernier = 0.000583341
Gmin = 4.16119e-011
vernier = 0.000777787
vernier = 0.00103705
Gmin = 4.15203e-011
vernier = 0.00138273
vernier = 0.00184364
vernier = 0.000921821
Gmin = 4.14128e-011
vernier = 0.000460911
vernier = 0.000614547
Gmin = 4.13636e-011
vernier = 0.000819396
vernier = 0.00109253
Gmin = 4.12775e-011
vernier = 0.0014567
vernier = 0.000728352
vernier = 0.000546264
Gmin = 4.12156e-011
vernier = 0.000728352
vernier = 0.000971135
Gmin = 4.11393e-011
vernier = 0.00129485
Gmin = 4.10197e-011
vernier = 0.00172646
vernier = 0.000863231
vernier = 0.000431615
vernier = 0.000575487
Gmin = 4.09858e-011
vernier = 0.000767316
Gmin = 4.09151e-011
vernier = 0.00102309
vernier = 0.00136412
Gmin = 4.07966e-011
vernier = 0.00181882
vernier = 0.000909411
vernier = 0.000454705
Gmin = 4.07457e-011
vernier = 0.000606274
vernier = 0.000808365
Gmin = 4.06757e-011
vernier = 0.00107782
vernier = 0.00143709
vernier = 0.000718546
Gmin = 4.05936e-011
vernier = 0.00053891
vernier = 0.000718546
Gmin = 4.05372e-011
vernier = 0.000958061
vernier = 0.00127741
Gmin = 4.04386e-011
vernier = 0.00170322
vernier = 0.000851609
vernier = 0.000425805
Gmin = 4.03741e-011
vernier = 0.000567739
vernier = 0.000756986
Gmin = 4.03159e-011
vernier = 0.00100931
Gmin = 4.02244e-011
vernier = 0.00134575
vernier = 0.00179434
vernier = 0.000897168
vernier = 0.000448584
Gmin = 4.01388e-011
vernier = 0.000598112
Gmin = 4.00848e-011
vernier = 0.000797482
vernier = 0.00106331
Gmin = 3.99944e-011
vernier = 0.00141774
vernier = 0.000708872
vernier = 0.000531654
Gmin = 3.99466e-011
vernier = 0.000708872
vernier = 0.000945163
Gmin = 3.98664e-011
vernier = 0.00126022
vernier = 0.00168029
vernier = 0.000840144
Gmin = 3.97724e-011
vernier = 0.000420072
vernier = 0.000560096
Gmin = 3.97292e-011
vernier = 0.000746795
vernier = 0.000995726
Gmin = 3.96539e-011
vernier = 0.00132763
Gmin = 3.95356e-011
vernier = 0.00177018
vernier = 0.000885089
vernier = 0.000442545
vernier = 0.000590059
Gmin = 3.95021e-011
vernier = 0.000786745
Gmin = 3.94323e-011
vernier = 0.00104899
vernier = 0.00139866
Gmin = 3.93152e-011
vernier = 0.00186488
vernier = 0.000932438
vernier = 0.000466219
Gmin = 3.92649e-011
vernier = 0.000621625
vernier = 0.000828834
Gmin = 3.91958e-011
vernier = 0.00110511
vernier = 0.00147348
vernier = 0.000736741
Gmin = 3.91147e-011
vernier = 0.000552556
vernier = 0.000736741
Gmin = 3.90589e-011
vernier = 0.00098232
vernier = 0.00130976
Gmin = 3.89615e-011
vernier = 0.00174635
vernier = 0.000873173
vernier = 0.000436587
Gmin = 3.88978e-011
vernier = 0.000582115
vernier = 0.000776154
Gmin = 3.88403e-011
vernier = 0.00103487
Gmin = 3.87499e-011
vernier = 0.00137983
vernier = 0.00183977
vernier = 0.000919885
vernier = 0.000459943
Gmin = 3.86654e-011
vernier = 0.000613257
Gmin = 3.86121e-011
vernier = 0.000817675
vernier = 0.00109023
Gmin = 3.85227e-011
vernier = 0.00145364
vernier = 0.00193819
vernier = 0.000969096
Gmin = 3.84179e-011
vernier = 0.000484548
vernier = 0.000646064
Gmin = 3.83698e-011
vernier = 0.000861418
vernier = 0.00114856
Gmin = 3.82859e-011
vernier = 0.00153141
vernier = 0.000765705
Gmin = 3.81835e-011
vernier = 0.000574278
vernier = 0.000430709
Gmin = 0
Gmin stepping failed

Starting source stepping with srcstepmethod=0
Source Step = 3.0303%
Source Step = 33.3333%
Source Step = 44.697%
Source Step = 46.9697%
Source Step = 48.8636%
Source Step = 50.7576%
Source Step = 51.8939%
Source Step = 52.3674%
Source Step = 52.8409%
Source Step = 53.3144%
Source Step = 53.7879%
vernier = 0.0234375
Source Step = 54.3324%
Source Step = 55.0426%
Source Step = 55.7528%
Source Step = 56.1257%
Source Step = 56.3033%
Source Step = 56.4808%
Source Step = 56.6584%
Source Step = 56.8359%
vernier = 0.00878906
Source Step = 57.049%
Source Step = 57.3153%
Source Step = 57.5817%
Source Step = 57.848%
Source Step = 58.1143%
vernier = 0.0131836
Source Step = 58.4206%
Source Step = 58.8201%
Source Step = 58.91%
Source Step = 59.0099%
Source Step = 59.1098%
Source Step = 59.2097%
Source Step = 59.3095%
vernier = 0.00494385
Source Step = 59.4494%
Source Step = 59.5992%
Source Step = 59.749%
Source Step = 59.8988%
Source Step = 60.0486%
vernier = 0.00741577
Source Step = 60.2509%
Source Step = 60.4756%
Source Step = 60.7003%
Source Step = 60.925%
Source Step = 61.1497%
vernier = 0.0111237
Source Step = 61.2818%
Source Step = 61.366%
Source Step = 61.4503%
Source Step = 61.5346%
Source Step = 61.6188%
vernier = 0.00417137
Source Step = 61.72%
Source Step = 61.8464%
Source Step = 61.9728%
Source Step = 62.0992%
Source Step = 62.2256%
vernier = 0.00625706
Source Step = 62.371%
Source Step = 62.5606%
Source Step = 62.7502%
Source Step = 62.8213%
Source Step = 62.8687%
Source Step = 62.9161%
Source Step = 62.9635%
Source Step = 63.0109%
vernier = 0.0023464
Source Step = 63.0725%
Source Step = 63.1436%
Source Step = 63.2147%
Source Step = 63.2858%
Source Step = 63.3569%
vernier = 0.00351959
Source Step = 63.4458%
Source Step = 63.5524%
Source Step = 63.6591%
Source Step = 63.7658%
Source Step = 63.8724%
vernier = 0.00527939
Source Step = 63.9484%
Source Step = 63.9884%
Source Step = 64.0284%
Source Step = 64.0684%
Source Step = 64.1084%
vernier = 0.00197977
Source Step = 64.1524%
Source Step = 64.2124%
Source Step = 64.2724%
Source Step = 64.3324%
Source Step = 64.3923%
vernier = 0.00296966
Source Step = 64.4553%
Source Step = 64.5453%
Source Step = 64.6353%
Source Step = 64.7253%
Source Step = 64.8153%
Source Step = 64.9053%
vernier = 0.00445449
Source Step = 64.9357%
Source Step = 64.9694%
Source Step = 65.0032%
Source Step = 65.0369%
Source Step = 65.0706%
vernier = 0.00167043
Source Step = 65.1179%
Source Step = 65.1685%
Source Step = 65.2191%
Source Step = 65.2697%
Source Step = 65.3204%
vernier = 0.00250565
Source Step = 65.3887%
Source Step = 65.4646%
Source Step = 65.5406%
Source Step = 65.6165%
Source Step = 65.6924%
vernier = 0.00375847
Source Step = 65.7911%
Source Step = 65.905%
Source Step = 66.0189%
Source Step = 66.0445%
Source Step = 66.073%
Source Step = 66.1015%
Source Step = 66.13%
Source Step = 66.1584%
vernier = 0.00140943
Source Step = 66.1983%
Source Step = 66.241%
Source Step = 66.2837%
Source Step = 66.3264%
Source Step = 66.3691%
vernier = 0.00211414
Source Step = 66.4268%
Source Step = 66.4909%
Source Step = 66.5549%
Source Step = 66.619%
Source Step = 66.683%
vernier = 0.00317121
Source Step = 66.7663%
Source Step = 66.8624%
Source Step = 66.9585%
Source Step = 67.0546%
Source Step = 67.1507%
vernier = 0.00475682
Source Step = 67.2132%
Source Step = 67.2492%
Source Step = 67.2853%
Source Step = 67.3213%
Source Step = 67.3573%
vernier = 0.00178381
Source Step = 67.3988%
Source Step = 67.4528%
Source Step = 67.5069%
Source Step = 67.5609%
Source Step = 67.615%
vernier = 0.00267571
Source Step = 67.6745%
Source Step = 67.7555%
Source Step = 67.8366%
Source Step = 67.9177%
Source Step = 67.9988%
vernier = 0.00401357
Source Step = 68.0839%
vernier = 0.00100339
Source Step = 68.1022%
Source Step = 68.1326%
Source Step = 68.163%
Source Step = 68.1934%
Source Step = 68.2238%
vernier = 0.00150509
Source Step = 68.2679%
Source Step = 68.3135%
Source Step = 68.3591%
Source Step = 68.4047%
Source Step = 68.4503%
vernier = 0.00225763
Source Step = 68.5142%
Source Step = 68.5826%
Source Step = 68.651%
Source Step = 68.7194%
Source Step = 68.7878%
vernier = 0.00338645
Source Step = 68.8237%
Source Step = 68.8494%
Source Step = 68.875%
Source Step = 68.9007%
Source Step = 68.9263%
vernier = 0.00126992
Source Step = 68.9584%
Source Step = 68.9969%
Source Step = 69.0354%
Source Step = 69.0739%
Source Step = 69.1123%
vernier = 0.00190488
Source Step = 69.1585%
Source Step = 69.2162%
Source Step = 69.274%
Source Step = 69.3317%
Source Step = 69.3894%
vernier = 0.00285731
Source Step = 69.4558%
Starting source stepping with srcstepmethod=1
Source Step = 3.0303%
Source Step = 33.3333%
Source Step = 63.6364%
Source Step = 93.9394%
Source Step = 100%
Source Step = 100%
Source Step = 99.1894%
vernier = 0.015625
Source Step = 99.0237%
Source Step = 99.0533%
Source Step = 99.0829%
Source Step = 99.1125%
Source Step = 99.142%
Source Step = 99.1716%
Source Step = 99.2012%
Source Step = 99.2308%
Source Step = 99.2604%
Source Step = 99.29%
Source Step = 99.3196%
Source Step = 99.3492%
Source Step = 99.3788%
Source Step = 99.4084%
Source Step = 99.438%
Source Step = 99.4676%
Source Step = 99.4972%
Source Step = 99.5268%
Source Step = 99.5563%
Source Step = 99.5859%
Source Step = 99.6155%
Source Step = 99.6451%
Source Step = 99.6747%
Source Step = 99.7043%
Source Step = 99.7339%
Source Step = 99.7635%
Source Step = 99.7931%
Source Step = 99.8227%
Source Step = 99.8523%
Source Step = 99.8819%
Source Step = 99.9115%
Source Step = 99.9411%
Source Step = 99.9706%
Source Step = 100%
Source Step = 100%
Source Step = 100%
Source Step = 100%
Source Step = 100%
Source Step = 100%
Source Step = 100%
Source Step = 100%
Source Step = 100%
Source Step = 100%
Source Step = 100%
Source Step = 100%
Source Step = 100%
Source Step = 100%
Source Step = 100%
Source Step = 100%
Source Step = 100%
Source Step = 100%
Source Step = 100%
Source Step = 100%
Source Step = 100%
Source Step = 100%
Source Step = 100%
Source Step = 100%
Source Step = 100%
Source Step = 100%
Source Step = 100%
Source Step = 100%
Source Step = 100%
Source Step = 100%
Source Step = 100%
Source Step = 100%
Source Step = 100%
Source Step = 100%
Source Step = 100%
Source Step = 100%
Source Step = 100%
Source Step = 100%
Source Step = 100%
Source Step = 100%
Source Step = 100%
Source Step = 100%
Source Step = 100%
Source Step = 100%
Source Step = 100%
Source Step = 100%
Source Step = 100%
Source Step = 100%
Source Step = 100%
Source Step = 100%
Source Step = 100%
Source Step = 100%
Source Step = 100%
Source Step = 100%
Source Step = 100%
Source Step = 100%
Source Step = 100%
Source Step = 100%
Source Step = 100%
Source Step = 100%
Source Step = 100%
Source Step = 100%
Source Step = 100%
Source Step = 100%
Source Step = 100%
Source Step = 100%
Source Step = 100%
Source Step = 100%
Source Step = 100%
Source Step = 100%
Source Step = 100%
Source Step = 100%
Source Step = 100%
Source Step = 100%
Source Step = 100%
Source Step = 100%
Source Step = 100%
Source Step = 100%
Source Step = 100%
Source Step = 100%
Source Step = 100%
Source Step = 100%
Source Step = 100%
Source Step = 100%
Source Step = 100%
Source Step = 100%
Source Step = 100%
Source Step = 100%
Source Step = 100%
Source Step = 100%
Source Step = 100%
Source Step = 100%
Source Step = 100%
Source Step = 100%
Source Step = 100%
Source Step = 100%
Source Step = 100%
Source Step = 100%
Source Step = 100%
Source Step = 100%
Source Step = 100%
Source Step = 100%
Source Step = 100%
Source Step = 100%
Source Step = 100%
Source Step = 100%
Source Step = 100%
Source Step = 100%
Source Step = 100%
Source Step = 100%
Source Step = 100%
Source Step = 100%
Source Step = 100%
Source Step = 100%
Source Step = 100%
Source Step = 100%
Source Step = 100%
Source Step = 100%
Source Step = 100%
Source Step = 100%
Source Step = 100%
Source Step = 100%
Source Step = 100%
Source Step = 100%
Source Step = 100%
Source Step = 100%
Source Step = 100%
Source Step = 100%
Source Step = 100%
Source Step = 100%
Source Step = 100%
Source Step = 100%
Source Step = 100%
Source Step = 100%
Source Step = 100%
Source Step = 100%
Source Step = 100%
Source Step = 100%
Source Step = 100%
Source Step = 100%
Source Step = 100%
Source Step = 100%
Source Step = 100%
Source Step = 100%
Source Step = 100%
Source Step = 100%
Source Step = 100%
Source Step = 100%
Source Step = 100%
Source Step = 100%
Source Step = 100%
Source Step = 100%
Source Step = 100%
Source Step = 100%
Source Step = 100%
Source Step = 100%
Source Step = 100%
Source Step = 100%
Source Step = 100%
Source Step = 100%
Source Step = 100%
Source Step = 100%
Source Step = 100%
Source Step = 100%
Source Step = 100%
Source Step = 100%
Source Step = 100%
Source Step = 100%
Source Step = 100%
Source Step = 100%
Source Step = 100%
Source Step = 100%
Source Step = 100%
Source Step = 100%
Source Step = 100%
Source Step = 100%
Source Step = 100%
Source Step = 100%
Source Step = 100%
Source Step = 100%
Source Step = 100%
Source Step = 100%
Source Step = 100%
Source Step = 100%
Source Step = 100%
Source Step = 100%
Source Step = 100%
Source Step = 100%
Source Step = 100%
Source Step = 100%
Source Step = 100%
Source Step = 100%
Source Step = 100%
Source Step = 100%
Source Step = 100%
Source Step = 100%
Source Step = 100%
Source Step = 100%
Source Step = 100%
Source Step = 100%
Source Step = 100%
Source Step = 100%
Source Step = 100%
Source Step = 100%
Source Step = 100%
Source Step = 100%
Source Step = 100%
Source Step = 100%
Source Step = 100%
Source Step = 100%
Source Step = 100%
Source Step = 100%
Source Step = 100%
Source Step = 100%
Source Step = 100%
Source Step = 100%
Source Step = 100%
Source Step = 100%
Source Step = 100%
Source Step = 100%
Source Step = 100%
Source Step = 100%
Source Step = 100%
Source Step = 100%
Source Step = 100%
Source Step = 100%
Source Step = 100%
Source Step = 100%
Source Step = 100%
Source Step = 100%
Source Step = 100%
Source Step = 100%
Source Step = 100%
Source Step = 100%
Source Step = 100%
Source Step = 100%
Source Step = 100%
Source Step = 100%
Source Step = 100%
Source Step = 100%
Source Step = 100%
Source Step = 100%
Source Step = 100%
Source Step = 100%
Source Step = 100%
Source Step = 100%
Source Step = 100%
Source Step = 100%
Source Step = 100%
Source Step = 100%
Source Step = 100%
Source Step = 100%
Source Step = 100%
Source Step = 100%
Source Step = 100%
Source Step = 100%
Source Step = 100%
Source Step = 100%
Source Step = 100%
Source Step = 100%
Source Step = 100%
Source Step = 100%
Source Step = 100%
Source Step = 100%
Source Step = 100%
Source Step = 100%
Source Step = 100%
Source Step = 100%
Source Step = 100%
Source Step = 100%
Source Step = 100%
Source Step = 100%
Source Step = 100%
Source Step = 100%
Source Step = 100%
Source Step = 100%
Source Step = 100%
Source Step = 100%
Source Step = 100%
Source Step = 100%
Source Step = 100%
Source Step = 100%
Source Step = 100%
Source Step = 100%
Source Step = 100%
Source Step = 100%
Source Step = 100%
Source Step = 100%
Source Step = 100%
Source Step = 100%
Source Step = 100%
Source Step = 100%
Source Step = 100%
Source Step = 100%
Source Step = 100%
Source Step = 100%
Source Step = 100%
Source Step = 100%
Source Step = 100%
Source Step = 100%
Source Step = 100%
Source Step = 100%
Source Step = 100%
Source Step = 100%
Source Step = 100%
Source Step = 100%
Source Step = 100%
Source Step = 100%
Source Step = 100%
Source Step = 100%
Source Step = 100%
Source Step = 100%
Source Step = 100%
Source Step = 100%
Source Step = 100%
Source Step = 100%
Source Step = 100%
Source Step = 100%
Source Step = 100%
Source Step = 100%
Source Step = 100%
Source Step = 100%
Source Step = 100%
Source Step = 100%
Source Step = 100%
Source Step = 100%
Source Step = 100%
Source Step = 100%
Source Step = 100%
Source Step = 100%
Source Step = 100%
Source Step = 100%
Source Step = 100%
Source Step = 100%
Source Step = 100%
Source Step = 100%
Source Step = 100%
Source Step = 100%
Source Step = 100%
Source Step = 100%
Source Step = 100%
Source Step = 100%
Source Step = 100%
Source Step = 100%
Source Step = 100%
Source Step = 100%
Source Step = 100%
Source Step = 100%
Source Step = 100%
Source Step = 100%
Source Step = 100%
Source Step = 100%
Source Step = 100%
Source Step = 100%
Source Step = 100%
Source Step = 100%
Source Step = 100%
Source Step = 100%
Source Step = 100%
Source Step = 100%
Source Step = 100%
Source Step = 100%
Source Step = 100%
Source Step = 100%
Source Step = 100%
Source Step = 100%
Source Step = 100%
Source Step = 100%
Source Step = 100%
Source Step = 100%
Source Step = 100%
Source Step = 100%
Source Step = 100%
Source Step = 100%
Source Step = 100%
Source Step = 100%
Source Step = 100%
Source Step = 100%
Source Step = 100%
Source Step = 100%
Source Step = 100%
Source Step = 100%
Source Step = 100%
Source Step = 100%
Source Step = 100%
Source Step = 100%
Source Step = 100%
Source Step = 100%
Source Step = 100%
Source Step = 100%
Source Step = 100%
Source Step = 100%
Source Step = 100%
Source Step = 100%
Source Step = 100%
Source Step = 100%
Source Step = 100%
Source Step = 100%
Source Step = 100%
Source Step = 100%
Source Step = 100%
Source Step = 100%
Source Step = 100%
Source Step = 100%
Source Step = 100%
Source Step = 100%
Source Step = 100%
Source Step = 100%
Source Step = 100%
Source Step = 100%
Source Step = 100%
Source Step = 100%
Source Step = 100%
Source Step = 100%
Source Step = 100%
Source Step = 100%
Source Step = 100%
Source Step = 100%
Source Step = 100%
Source Step = 100%
Source Step = 100%
Source Step = 100%
Source Step = 100%
Source Step = 100%
Source Step = 100%
Source Step = 100%
Source Step = 100%
Source Step = 100%
Source Step = 100%
Source Step = 100%
Source Step = 100%
Source Step = 100%
Source Step = 100%
Source Step = 100%
Source Step = 100%
Source Step = 100%
Source Step = 100%
Source Step = 100%
Source Step = 100%
Source Step = 100%
Source Step = 100%
Source Step = 100%
Source Step = 100%
Source Step = 100%
Source Step = 100%
Source Step = 100%
Source Step = 100%
Source Step = 100%
Source Step = 100%
Source Step = 100%
Source Step = 100%
Source Step = 100%
Source Step = 100%
Source Step = 100%
Source Step = 100%
Source Step = 100%
Source Step = 100%
Source Step = 100%
Source Step = 100%
Source Step = 100%
Source Step = 100%
Source Step = 100%
Source Step = 100%
Source Step = 100%
Source Step = 100%
Source Step = 100%
Source Step = 100%
Source Step = 100%
Source Step = 100%
Source Step = 100%
Source Step = 100%
Source Step = 100%
Source Step = 100%
Source Step = 100%
Source Step = 100%
Source Step = 100%
Source Step = 100%
Source Step = 100%
Source Step = 100%
Source Step = 100%
Source Step = 100%
Source Step = 100%
Source Step = 100%
Source Step = 100%
Source Step = 100%
Source Step = 100%
Source Step = 100%
Source Step = 100%
Source Step = 100%
Source Step = 100%
Source Step = 100%
Source Step = 100%
Source Step = 100%
Source Step = 100%
Source Step = 100%
Source Step = 100%
Source Step = 100%
Source Step = 100%
Source Step = 100%
Source Step = 100%
Source Step = 100%
Source Step = 100%
Source Step = 100%
Source Step = 100%
Source Step = 100%
Source Step = 100%
Source Step = 100%
Source Step = 100%
Source Step = 100%
Source Step = 100%
Source Step = 100%
Source Step = 100%
Source Step = 100%
Source Step = 100%
Source Step = 100%
Source Step = 100%
Source Step = 100%
Source Step = 100%
Source Step = 100%
Source Step = 100%
Source Step = 100%
Source Step = 100%
Source Step = 100%
Source Step = 100%
Source Step = 100%
Source Step = 100%
Source Step = 100%
Source Step = 100%
Source Step = 100%
Source Step = 100%
Source Step = 100%
Source Step = 100%
Source Step = 100%
Source Step = 100%
Source Step = 100%
Source Step = 100%
Source Step = 100%
Source Step = 100%
Source Step = 100%
Source Step = 100%
Source Step = 100%
Source Step = 100%
Source Step = 100%
Source Step = 100%
Source Step = 100%
Source Step = 100%
Source Step = 100%
Source Step = 100%
Source Step = 100%
Source Step = 100%
Source Step = 100%
Source Step = 100%
Source Step = 100%
Source Step = 100%
Source Step = 100%
Source Step = 100%
Source Step = 100%
Source Step = 100%
Source Step = 100%
Source Step = 100%
Source Step = 100%
Source Step = 100%
Source Step = 100%
Source Step = 100%
Source Step = 100%
Source Step = 100%
Source Step = 100%
Source Step = 100%
Source Step = 100%
Source Step = 100%
Source Step = 100%
Source Step = 100%
Source Step = 100%
Source Step = 100%
Source Step = 100%
Source Step = 100%
Source Step = 100%
Source Step = 100%
Source Step = 100%
Source Step = 100%
Source Step = 100%
Source Step = 100%
Source Step = 100%
Source Step = 100%
Source Step = 100%
Source Step = 100%
Source Step = 100%
Source Step = 100%
Source Step = 100%
Source Step = 100%
Source Step = 100%
Source Step = 100%
Source Step = 100%
Source Step = 100%
Source Step = 100%
Source Step = 100%
Source Step = 100%
Source Step = 100%
Source Step = 100%
Source Step = 100%
Source Step = 100%
Source Step = 100%
Source Step = 100%
Source Step = 100%
Source Step = 100%
Source Step = 100%
Source Step = 100%
Source Step = 100%
Source Step = 100%
Source Step = 100%
Source Step = 100%
Source Step = 100%
Source Step = 100%
Source Step = 100%
Source Step = 100%
Source Step = 100%
Source Step = 100%
Source Step = 100%
Source Step = 100%
Source Step = 100%
Source Step = 100%
Source Step = 100%
Source Step = 100%
Source Step = 100%
Source Step = 100%
Source Step = 100%
Source Step = 100%
Source Step = 100%
Source Step = 100%
Source Step = 100%
Source Step = 100%
Source Step = 100%
Source Step = 100%
Source Step = 100%
Source Step = 100%
Source Step = 100%
Source Step = 100%
Source Step = 100%
Source Step = 100%
Source Step = 100%
Source Step = 100%
Source Step = 100%
Source Step = 100%
Source Step = 100%
Source Step = 100%
Source Step = 100%
Source Step = 100%
Source Step = 100%
Source Step = 100%
Source Step = 100%
Source Step = 100%
Source Step = 100%
Source Step = 100%
Source Step = 100%
Source Step = 100%
Source Step = 100%
Source Step = 100%
Source Step = 100%
Source Step = 100%
Source Step = 100%
Source Step = 100%
Source Step = 100%
Source Step = 100%
Source Step = 100%
Source Step = 100%
Source Step = 100%
Source Step = 100%
Source Step = 100%
Source Step = 100%
Source Step = 100%
Source Step = 100%
Source Step = 100%
Source Step = 100%
Source Step = 100%
Source Step = 100%
Source Step = 100%
Source Step = 100%
Source Step = 100%
Source Step = 100%
Source Step = 100%
Source Step = 100%
Source Step = 100%
Source Step = 100%
Source Step = 100%
Source Step = 100%
Source Step = 100%
Source Step = 100%
Source Step = 100%
Source Step = 100%
Source Step = 100%
Source Step = 100%
Source Step = 100%
Source Step = 100%
Source Step = 100%
Source Step = 100%
Source Step = 100%
Source Step = 100%
Source Step = 100%
Source Step = 100%
Source Step = 100%
Source Step = 100%
Source Step = 100%
Source Step = 100%
Source Step = 100%
Source Step = 100%
Source Step = 100%
Source Step = 100%
Source Step = 100%
Source Step = 100%
Source Step = 100%
Source Step = 100%
Source Step = 100%
Source Step = 100%
Source Step = 100%
Source Step = 100%
Source Step = 100%
Source Step = 100%
Source Step = 100%
Source Step = 100%
Source Step = 100%
Source Step = 100%
Source Step = 100%
Source Step = 100%
Source Step = 100%
Source Step = 100%
Source Step = 100%
Source Step = 100%
Source Step = 100%
Source Step = 100%
Source Step = 100%
Source Step = 100%
Source Step = 100%
Source Step = 100%
Source Step = 100%
Source Step = 100%
Source Step = 100%
Source Step = 100%
Source Step = 100%
Source Step = 100%
Source Step = 100%
Source Step = 100%
Source Step = 100%
Source Step = 100%
Source Step = 100%
Source Step = 100%
Source Step = 100%
Source Step = 100%
Source Step = 100%
Source Step = 100%
Source Step = 100%
Source Step = 100%
Source Step = 100%
Source Step = 100%
Source Step = 100%
Source Step = 100%
Source Step = 100%
Source Step = 100%
Source Step = 100%
Source Step = 100%
Source Step = 100%
Source Step = 100%
Source Step = 100%
Source Step = 100%
Source Step = 100%
Source Step = 100%
Source Step = 100%
Source Step = 100%
Source Step = 100%
Source Step = 100%
Source Step = 100%
Source Step = 100%
Source Step = 100%
Source Step = 100%
Source Step = 100%
Source Step = 100%
Source Step = 100%
Source Step = 100%
Source Step = 100%
Source Step = 100%
Source Step = 100%
Source Step = 100%
Source Step = 100%
Source Step = 100%
Source Step = 100%
Source Step = 100%
Source Step = 100%
Source Step = 100%
Source Step = 100%
Source Step = 100%
Source Step = 100%
Source Step = 100%
Source Step = 100%
Source Step = 100%
Source Step = 100%
Source Step = 100%
Source Step = 100%
Source Step = 100%
Source Step = 100%
Source Step = 100%
Source Step = 100%
Source Step = 100%
Source Step = 100%
Source Step = 100%
Source Step = 100%
Source Step = 100%
Source Step = 100%
Source Step = 100%
Source Step = 100%
Source Step = 100%
Source Step = 100%
Source Step = 100%
Source Step = 100%
Source Step = 100%
Source Step = 100%
Source Step = 100%
Source Step = 100%
Source Step = 100%
Source Step = 100%
Source Step = 100%
Source Step = 100%
Source Step = 100%
Source Step = 100%
Source Step = 100%
Source Step = 100%
Source Step = 100%
Source Step = 100%
Source Step = 100%
Source Step = 100%
Source Step = 100%
Source Step = 100%
Source Step = 100%
Source Step = 100%
Source Step = 100%
Source Step = 100%
Source Step = 100%
Source Step = 100%
Source Step = 100%
Source Step = 100%
Source Step = 100%
Source Step = 100%
Source Step = 100%
Source Step = 100%
Source Step = 100%
Source Step = 100%
Source Step = 100%
Source Step = 100%
Source Step = 100%
Source Step = 100%
Source Step = 100%
Source Step = 100%
Source Step = 100%
Source Step = 100%
Source Step = 100%
Source Step = 100%
Source Step = 100%
Source Step = 100%
Source Step = 100%
Source Step = 100%
Source Step = 100%
Source Step = 100%
Source Step = 100%
Source Step = 100%
Source Step = 100%
Source Step = 100%
Source Step = 100%
Source Step = 100%
Source Step = 100%
Source Step = 100%
Source Step = 100%
Source Step = 100%
Source Step = 100%
Source Step = 100%
Source Step = 100%
Source Step = 100%
Source Step = 100%
Source Step = 100%
Source Step = 100%
Source Step = 100%
Source Step = 100%
Source Step = 100%
Source Step = 100%
Source Step = 100%
Source Step = 100%
Source Step = 100%
Source Step = 100%
Source Step = 100%
Source Step = 100%
Source Step = 100%
Source Step = 100%
Source Step = 100%
Source Step = 100%
Source Step = 100%
Source Step = 100%
Source Step = 100%
Source Step = 100%
Source Step = 100%
Source Step = 100%
Source Step = 100%
Source Step = 100%
Source Step = 100%
Source Step = 100%
Source Step = 100%
Source Step = 100%
Source Step = 100%
Source Step = 100%
Source Step = 100%
Source Step = 100%
Source Step = 100%
Source Step = 100%
Source Step = 100%
Source Step = 100%
Source Step = 100%
Source Step = 100%
Source Step = 100%
Source Step = 100%
Source Step = 100%
Source Step = 100%
Source Step = 100%
Source Step = 100%
Source Step = 100%
Source Step = 100%
Source Step = 100%
Source Step = 100%
Source Step = 100%
Source Step = 100%
Source Step = 100%
Source Step = 100%
Source Step = 100%
Source Step = 100%
Source Step = 100%
Source Step = 100%
Source Step = 100%
Source Step = 100%
Source Step = 100%
Source Step = 100%
Source Step = 100%
Source Step = 100%
Source Step = 100%
Source Step = 100%
Source Step = 100%
Source Step = 100%
Source Step = 100%
Source Step = 100%
Source Step = 100%
Source Step = 100%
Source Step = 100%
Source Step = 100%
Source Step = 100%
Source Step = 100%
Source Step = 100%
Source Step = 100%
Source Step = 100%
Source Step = 100%
Source Step = 100%
Source Step = 100%
Source Step = 100%
Source Step = 100%
Source Step = 100%
Source Step = 100%
Source Step = 100%
Source Step = 100%
Source Step = 100%
Source Step = 100%
Source Step = 100%
Source Step = 100%
Source Step = 100%
Source Step = 100%
Source Step = 100%
Source Step = 100%
Source Step = 100%
Source Step = 100%
Source Step = 100%
Source Step = 100%
Source Step = 100%
Source Step = 100%
Source Step = 100%
Source Step = 100%
Source Step = 100%
Source Step = 100%
Source Step = 100%
Source Step = 100%
Source Step = 100%
Source Step = 100%
Source Step = 100%
Source Step = 100%
Source Step = 100%
Source Step = 100%
Source Step = 100%
Source Step = 100%
Source Step = 100%
Source Step = 100%
Source Step = 100%
Source Step = 100%
Source Step = 100%
Source Step = 100%
Source Step = 100%
Source Step = 100%
Source Step = 100%
Source Step = 100%
Source Step = 100%
Source Step = 100%
Source Step = 100%
Source Step = 100%
Source Step = 100%
Source Step = 100%
Source Step = 100%
Source Step = 100%
Source Step = 100%
Source Step = 100%
Source Step = 100%
Source Step = 100%
Source Step = 100%
Source Step = 100%
Source Step = 100%
Source Step = 100%
Source Step = 100%
Source Step = 100%
Source Step = 100%
Source Step = 100%
Source Step = 100%
Source Step = 100%
Source Step = 100%
Source Step = 100%
Source Step = 100%
Source Step = 100%
Source Step = 100%
Source Step = 100%
Source Step = 100%
Source Step = 100%
Source Step = 100%
Source Step = 100%
Source Step = 100%
Source Step = 100%
Source Step = 100%
Source Step = 100%
Source Step = 100%
Source Step = 100%
Source Step = 100%
Source Step = 100%
Source Step = 100%
Source Step = 100%
Source Step = 100%
Source Step = 100%
Source Step = 100%
Source Step = 100%
Source Step = 100%
Source Step = 100%
Source Step = 100%
Source Step = 100%
Source Step = 100%
Source Step = 100%
Source Step = 100%
Source Step = 100%
Source Step = 100%
Source Step = 100%
Source Step = 100%
Source Step = 100%
Source Step = 100%
Source Step = 100%
Source Step = 100%
Source Step = 100%
Source Step = 100%
Source Step = 100%
Source Step = 100%
Source Step = 100%
Source Step = 100%
Source Step = 100%
Source Step = 100%
Source Step = 100%
Source Step = 100%
Source Step = 100%
Source Step = 100%
Source Step = 100%
Source Step = 100%
Source Step = 100%
Source Step = 100%
Source Step = 100%
Source Step = 100%
Source Step = 100%
Source Step = 100%
Source Step = 100%
Source Step = 100%
Source Step = 100%
Source Step = 100%
Source Step = 100%
Source Step = 100%
Source Step = 100%
Source Step = 100%
Source Step = 100%
Source Step = 100%
Source Step = 100%
Source Step = 100%
Source Step = 100%
Source Step = 100%
Source Step = 100%
Source Step = 100%
Source Step = 100%
Source Step = 100%
Source Step = 100%
Source Step = 100%
Source Step = 100%
Source Step = 100%
Source Step = 100%
Source Step = 100%
Source Step = 100%
Source Step = 100%
Source Step = 100%
Source Step = 100%
Source Step = 100%
Source Step = 100%
Source Step = 100%
Source Step = 100%
Source Step = 100%
Source Step = 100%
Source Step = 100%
Source Step = 100%
Source Step = 100%
Source Step = 100%
Source Step = 100%
Source Step = 100%
Source Step = 100%
Source Step = 100%
Source Step = 100%
Source Step = 100%
Source Step = 100%
Source Step = 100%
Source Step = 100%
Source Step = 100%
Source Step = 100%
Source Step = 100%
Source Step = 100%
Source Step = 100%
Source Step = 100%
Source Step = 100%
Source Step = 100%
Source Step = 100%
Source Step = 100%
Source Step = 100%
Source Step = 100%
[...]
Source Step = 100%
Source Step = 100%
Source Step = 100%
Source Step = 100%
Source Step = 100%
Source Step = 100%
Source Step = 100%
Source Step = 100%
Source Step = 100%
Source Step = 100%
Source Step = 100%
Source Step = 100%
Source Step = 100%
Source Step = 100%
Source Step = 100%
Source Step = 100%
Source Step = 100%
Source Step = 100%
Source Step = 100%
Source Step = 100%
Source Step = 100%
Source Step = 100%
Source Step = 100%
Source Step = 100%
Source Step = 100%
Source Step = 100%
Source Step = 100%
Source Step = 100%
Source Step = 100%
Source Step = 100%
Source Step = 100%
Source Step = 100%
Source Step = 100%
Source Step = 100%
Source Step = 100%
Source Step = 100%
Source Step = 100%
Source Step = 100%
Source Step = 100%
Source Step = 100%
Source Step = 100%
Source Step = 100%
Source Step = 100%
Source Step = 100%
Source Step = 100%
Source Step = 100%
Source Step = 100%
Source Step = 100%
Source Step = 100%
Source Step = 100%
Source Step = 100%
Source Step = 100%
Source Step = 100%
Source Step = 100%
Source Step = 100%
Source Step = 100%
Source Step = 100%
Source Step = 100%
Source Step = 100%
Source Step = 100%
Source Step = 100%
Source Step = 100%
Source Step = 100%
Source Step = 100%
Source Step = 100%
Source Step = 100%
Source Step = 100%
Source Step = 100%
Source Step = 100%
Source Step = 100%
Source Step = 100%
Source Step = 100%
Source Step = 100%
Source Step = 100%
Source Step = 100%
Source Step = 100%
Source Step = 100%
Source Step = 100%
Source Step = 100%
Source Step = 100%
Source Step = 100%
Source Step = 100%
Source Step = 100%
Source Step = 100%
Source Step = 100%
Source Step = 100%
Source Step = 100%
Source Step = 100%
Source Step = 100%
Source Step = 100%
Source Step = 100%
Source Step = 100%
Source Step = 100%
Source Step = 100%
Source Step = 100%
Source Step = 100%
Source Step = 100%
Source Step = 100%
Source Step = 100%
Source Step = 100%
Source Step = 100%
Source Step = 100%
Source Step = 100%
Source Step = 100%
Source Step = 100%
Source Step = 100%
Source Step = 100%
Source Step = 100%
Source Step = 100%
Source Step = 100%
Source Step = 100%
Source Step = 100%
Source Step = 100%
Source Step = 100%
Source Step = 100%
Source Step = 100%
Source Step = 100%
Source Step = 100%
Source Step = 100%
Source Step = 100%
Source Step = 100%
Source Step = 100%
Source Step = 100%
Source Step = 100%
Source Step = 100%
Source Step = 100%
Source Step = 100%
Source Step = 100%
Source Step = 100%
Source Step = 100%
Source Step = 100%
Source Step = 100%
Source Step = 100%
Source Step = 100%
Source Step = 100%
Source Step = 100%
Source Step = 100%
Source Step = 100%
Source Step = 100%
Source Step = 100%
Source Step = 100%
Source Step = 100%
Source Step = 100%
Source Step = 100%
Source Step = 100%
Source Step = 100%
Source Step = 100%
Source Step = 100%
Source Step = 100%
Source Step = 100%
Source Step = 100%
Source Step = 100%
Source Step = 100%
Source Step = 100%
Source Step = 100%
Source Step = 100%
Source Step = 100%
Source Step = 100%
Source Step = 100%
Source Step = 100%
Source Step = 100%
Source Step = 100%
Source Step = 100%
Source Step = 100%
Source Step = 100%
Source Step = 100%
Source Step = 100%
Source Step = 100%
Source Step = 100%
Source Step = 100%
Source Step = 100%
Source Step = 100%
Source Step = 100%
Source Step = 100%
Source Step = 100%
Source Step = 100%
Source Step = 100%
Source Step = 100%
Source Step = 100%
Source Step = 100%
Source Step = 100%
Source Step = 100%
Source Step = 100%
Source Step = 100%
Source Step = 100%
Source Step = 100%
Source Step = 100%
Source Step = 100%
Source Step = 100%
Source Step = 100%
Source Step = 100%
Source Step = 100%
Source Step = 100%
Source Step = 100%
Source Step = 100%
Source Step = 100%
Source Step = 100%
Source Step = 100%
Source Step = 100%
Source Step = 100%
Source Step = 100%
Source Step = 100%
Source Step = 100%
Source Step = 100%
Source Step = 100%
Source Step = 100%
Source Step = 100%
Source Step = 100%
Source Step = 100%
Source Step = 100%
Source Step = 100%
Source Step = 100%
Source Step = 100%
Source Step = 100%
Source Step = 100%
Source Step = 100%
Source Step = 100%
Source Step = 100%
Source Step = 100%
Source Step = 100%
Source Step = 100%
Source Step = 100%
Source Step = 100%
Source Step = 100%
Source Step = 100%
Source Step = 100%
Source Step = 100%
Source Step = 100%
Source Step = 100%
Source Step = 100%
Source Step = 100%
Source Step = 100%
Source Step = 100%
Source Step = 100%
Source Step = 100%
Source Step = 100%
Source Step = 100%
Source Step = 100%
Source Step = 100%
Source Step = 100%
Source Step = 100%
Source Step = 100%
Source Step = 100%
Source Step = 100%
Source Step = 100%
Source Step = 100%
Source Step = 100%
Source Step = 100%
Source Step = 100%
Source Step = 100%
Source Step = 100%
Source Step = 100%
Source Step = 100%
Source Step = 100%
Source Step = 100%
Source Step = 100%
Source Step = 100%
Source Step = 100%
Source Step = 100%
Source Step = 100%
Source Step = 100%
Source Step = 100%
Source Step = 100%
Source Step = 100%
Source Step = 100%
Source Step = 100%
Source Step = 100%
Source Step = 100%
Source Step = 100%
Source Step = 100%
Source Step = 100%
Source Step = 100%
Source Step = 100%
Source Step = 100%
Source Step = 100%
Source Step = 100%
Source Step = 100%
Source Step = 100%
Source Step = 100%
Source Step = 100%
Source Step = 100%
Source Step = 100%
Source Step = 100%
Source Step = 100%
Source Step = 100%
Source Step = 100%
Source Step = 100%
Source Step = 100%
Source Step = 100%
Source Step = 100%
Source Step = 100%
Source Step = 100%
Source Step = 100%
Source Step = 100%
Source Step = 100%
Source Step = 100%
Source Step = 100%
Source Step = 100%
Source Step = 100%
Source Step = 100%
Source Step = 100%
Source Step = 100%
Source Step = 100%
Source Step = 100%
Source Step = 100%
Source Step = 100%
Source Step = 100%
Source Step = 100%
Source Step = 100%
Source Step = 100%
Source Step = 100%
Source Step = 100%
Source Step = 100%
Source Step = 100%
Source Step = 100%
Source Step = 100%
Source Step = 100%
Source Step = 100%
Source Step = 100%
Source Step = 100%
Source Step = 100%
Source Step = 100%
Source Step = 100%
Source Step = 100%
Source Step = 100%
Source Step = 100%
Source Step = 100%
Source Step = 100%
Source Step = 100%
Source Step = 100%
Source Step = 100%
Source Step = 100%
Source Step = 100%
Source Step = 100%
Source Step = 100%
Source Step = 100%
Source Step = 100%
Source Step = 100%
Source Step = 100%
Source Step = 100%
Source Step = 100%
Source Step = 100%
Source Step = 100%
Source Step = 100%
Source Step = 100%
Source Step = 100%
Source Step = 100%
Source Step = 100%
Source Step = 100%
Source Step = 100%
Source Step = 100%
Source Step = 100%
Source Step = 100%
Source Step = 100%
Source Step = 100%
Source Step = 100%
Source Step = 100%
Source Step = 100%
Source Step = 100%
Source Step = 100%
Source Step = 100%
Source Step = 100%
Source Step = 100%
Source Step = 100%
Source Step = 100%
Source Step = 100%
Source Step = 100%
Source Step = 100%
Source Step = 100%
Source Step = 100%
Source Step = 100%
Source Step = 100%
Source Step = 100%
Source Step = 100%
Source Step = 100%
Source Step = 100%
Source Step = 100%
Source Step = 100%
Source Step = 100%
Source Step = 100%
Source Step = 100%
Source Step = 100%
Source Step = 100%
Source Step = 100%
Source Step = 100%
Source Step = 100%
Source Step = 100%
Source Step = 100%
Source Step = 100%
Source Step = 100%
Source Step = 100%
Source Step = 100%
Source Step = 100%
Source Step = 100%
Source Step = 100%
Source Step = 100%
Source Step = 100%
Source Step = 100%
Source Step = 100%
Source Step = 100%
Source Step = 100%
Source Step = 100%
Source Step = 100%
Source Step = 100%
Source Step = 100%
Source Step = 100%
Source Step = 100%
Source Step = 100%
Source Step = 100%
Source Step = 100%
Source Step = 100%
Source Step = 100%
Source Step = 100%
Source Step = 100%
Source Step = 100%
Source Step = 100%
Source Step = 100%
Source Step = 100%
Source Step = 100%
Source Step = 100%
Source Step = 100%
Source Step = 100%
Source Step = 100%
Source Step = 100%
Source Step = 100%
Source Step = 100%
Source Step = 100%
Source Step = 100%
Source Step = 100%
Source Step = 100%
Source Step = 100%
Source Step = 100%
Source Step = 100%
Source Step = 100%
Source Step = 100%
Source Step = 100%
Source Step = 100%
Source Step = 100%
Source Step = 100%
Source Step = 100%
Source Step = 100%
Source Step = 100%
Source Step = 100%
Source Step = 100%
Source Step = 100%
Source Step = 100%
Source Step = 100%
Source Step = 100%
Source Step = 100%
Source Step = 100%
Source Step = 100%
Source Step = 100%
Source Step = 100%
Source Step = 100%
Source Step = 100%
Source Step = 100%
Source Step = 100%
Source Step = 100%
Source Step = 100%
Source Step = 100%
Source Step = 100%
Source Step = 100%
Source Step = 100%
Source Step = 100%
Source Step = 100%
Source Step = 100%
Source Step = 100%
Source Step = 100%
Source Step = 100%
Source Step = 100%
Source Step = 100%
Source Step = 100%
Source Step = 100%
Source Step = 100%
Source Step = 100%
Source Step = 100%
Source Step = 100%
Source Step = 100%
Source Step = 100%
Source Step = 100%
Source Step = 100%
Source Step = 100%
Source Step = 100%
Source Step = 100%
Source Step = 100%
Source Step = 100%
Source Step = 100%
Source Step = 100%
Source Step = 100%
Source Step = 100%
Source Step = 100%
Source Step = 100%
Source Step = 100%
Source Step = 100%
Source Step = 100%
Source Step = 100%
Source Step = 100%
Source Step = 100%
Source Step = 100%
Source Step = 100%
Source Step = 100%
Source Step = 100%
Source Step = 100%
Source Step = 100%
Source Step = 100%
Source Step = 100%
Source Step = 100%
Source Step = 100%
Source Step = 100%
Source Step = 100%
Source Step = 100%
Source Step = 100%
Source Step = 100%
Source Step = 100%
Source Step = 100%
Source Step = 100%
Source Step = 100%
Source Step = 100%
Source Step = 100%
Source Step = 100%
Source Step = 100%
Source Step = 100%
Source Step = 100%
Source Step = 100%
Source Step = 100%
Source Step = 100%
Source Step = 100%
Source Step = 100%
Source Step = 100%
Source Step = 100%
Source Step = 100%
Source Step = 100%
Source Step = 100%
Source Step = 100%
Source Step = 100%
Source Step = 100%
Source Step = 100%
Source Step = 100%
Source Step = 100%
Source Step = 100%
Source Step = 100%
Source Step = 100%
Source Step = 100%
Source Step = 100%
Source Step = 100%
Source Step = 100%
Source Step = 100%
Source Step = 100%
Source Step = 100%
Source Step = 100%
Source Step = 100%
Source Step = 100%
Source Step = 100%
Source Step = 100%
Source Step = 100%
Source Step = 100%
Source Step = 100%
Source Step = 100%
Source Step = 100%
Source Step = 100%
Source Step = 100%
Source Step = 100%
Source Step = 100%
Source Step = 100%
Source Step = 100%
Source Step = 100%
Source Step = 100%
Source Step = 100%
Source Step = 100%
Source Step = 100%
Source Step = 100%
Source Step = 100%
Source Step = 100%
Source Step = 100%
Source Step = 100%
Source Step = 100%
Source Step = 100%
Source Step = 100%
Source Step = 100%
Source Step = 100%
Source Step = 100%
Source Step = 100%
Source Step = 100%
Source Step = 100%
Source Step = 100%
Source Step = 100%
Source Step = 100%
Source Step = 100%
Source Step = 100%
Source Step = 100%
Source Step = 100%
Source Step = 100%
Source Step = 100%
Source Step = 100%
Source Step = 100%
Source Step = 100%
Source Step = 100%
Source Step = 100%
Source Step = 100%
Source Step = 100%
Source Step = 100%
Source Step = 100%
Source Step = 100%
Source Step = 100%
Source Step = 100%
Source Step = 100%
Source Step = 100%
Source Step = 100%
Source Step = 100%
Source Step = 100%
Source Step = 100%
Source Step = 100%
Source Step = 100%
Source Step = 100%
Source Step = 100%
Source Step = 100%
Source Step = 100%
Source Step = 100%
Source Step = 100%
Source Step = 100%
Source Step = 100%
Source Step = 100%
Source Step = 100%
Source Step = 100%
Source Step = 100%
Source Step = 100%
Source Step = 100%
Source Step = 100%
Source Step = 100%
Source Step = 100%
Source Step = 100%
Source Step = 100%
Source Step = 100%
Source Step = 100%
Source Step = 100%
Source Step = 100%
Source Step = 100%
Source Step = 100%
Source Step = 100%
Source Step = 100%
Source Step = 100%
Source Step = 100%
Source Step = 100%
Source Step = 100%
Source Step = 100%
Source Step = 100%
Source Step = 100%
Source Step = 100%
Source Step = 100%
Source Step = 100%
Source Step = 100%
Source Step = 100%
Source Step = 100%
Source Step = 100%
Source Step = 100%
Source Step = 100%
Source Step = 100%
Source Step = 100%
Source Step = 100%
Source Step = 100%
Source Step = 100%
Source Step = 100%
Source Step = 100%
Source Step = 100%
Source Step = 100%
Source Step = 100%
Source Step = 100%
Source Step = 100%
Source Step = 100%
Source Step = 100%
Source Step = 100%
Source Step = 100%
Source Step = 100%
Source Step = 100%
Source Step = 100%
Source Step = 100%
Source Step = 100%
Source Step = 100%
Source Step = 100%
Source Step = 100%
Source Step = 100%
Source Step = 100%
Source Step = 100%
Source Step = 100%
Source Step = 100%
Source Step = 100%
Source Step = 100%
Source Step = 100%
Source Step = 100%
Source Step = 100%
Source Step = 100%
Source Step = 100%
Source Step = 100%
Source Step = 100%
Source Step = 100%
Source Step = 100%
Source Step = 100%
Source Step = 100%
Source Step = 100%
Source Step = 100%
Source Step = 100%
Source Step = 100%
Source Step = 100%
Source Step = 100%
Source Step = 100%
Source Step = 100%
Source Step = 100%
Source Step = 100%
Source Step = 100%
Source Step = 100%
Source Step = 100%
Source Step = 100%
Source Step = 100%
Source Step = 100%
Source Step = 100%
Source Step = 100%
Source Step = 100%
Source Step = 100%
Source Step = 100%
Source Step = 100%
Source Step = 100%
Source Step = 100%
Source Step = 100%
Source Step = 100%
Source Step = 100%
Source Step = 100%
Source Step = 100%
Source Step = 100%
Source Step = 100%
Source Step = 100%
Source Step = 100%
Source Step = 100%
Source Step = 100%
Source Step = 100%
Source Step = 100%
Source Step = 100%
Source Step = 100%
Source Step = 100%
Source Step = 100%
Source Step = 100%
Source Step = 100%
Source Step = 100%
Source Step = 100%
Source Step = 100%
Source Step = 100%
Source Step = 100%
Source Step = 100%
Source Step = 100%
Source Step = 100%
Source Step = 100%
Source Step = 100%
Source Step = 100%
Source Step = 100%
Source Step = 100%
Source Step = 100%
Source Step = 100%
Source Step = 100%
Source Step = 100%
Source Step = 100%
Source Step = 100%
Source Step = 100%
Source Step = 100%
Source Step = 100%
Source Step = 100%
Source Step = 100%
Source Step = 100%
Source Step = 100%
Source Step = 100%
Source Step = 100%
Source Step = 100%
Source Step = 100%
Source Step = 100%
Source Step = 100%
Source Step = 100%
Source Step = 100%
Source Step = 100%
Source Step = 100%
Source Step = 100%
Source Step = 100%
Source Step = 100%
Source Step = 100%
Source Step = 100%
Source Step = 100%
Source Step = 100%
Source Step = 100%
Source Step = 100%
Source Step = 100%
Source Step = 100%
Source Step = 100%
Source Step = 100%
Source Step = 100%
Source Step = 100%
Source Step = 100%
Source Step = 100%
Source Step = 100%
Source Step = 100%
Source Step = 100%
Source Step = 100%
Source Step = 100%
Source Step = 100%
Source Step = 100%
Source Step = 100%
Source Step = 100%
Source Step = 100%
Source Step = 100%
Source Step = 100%
Source Step = 100%
Source Step = 100%
Source Step = 100%
Source Step = 100%
Source Step = 100%
Source Step = 100%
Source Step = 100%
Source Step = 100%
Source Step = 100%
Source Step = 100%
Source Step = 100%
Source Step = 100%
Source Step = 100%
Source Step = 100%
Source Step = 100%
Source Step = 100%
Source Step = 100%
Source Step = 100%
Source Step = 100%
Source Step = 100%
Source Step = 100%
Source Step = 100%
Source Step = 100%
Source Step = 100%
Source Step = 100%
Source Step = 100%
Source Step = 100%
Source Step = 100%
Source Step = 100%
Source Step = 100%
Source Step = 100%
Source Step = 100%
Source Step = 100%
Source Step = 100%
Source Step = 100%
Source Step = 100%
Source Step = 100%
Source Step = 100%
Source Step = 100%
Source Step = 100%
Source Step = 100%
Source Step = 100%
Source Step = 100%
Source Step = 100%
Source Step = 100%
Source Step = 100%
Source Step = 100%
Source Step = 100%
Source Step = 100%
Source Step = 100%
Source Step = 100%
Source Step = 100%
Source Step = 100%
Source Step = 100%
Source Step = 100%
Source Step = 100%
Source Step = 100%
Source Step = 100%
Source Step = 100%
Source Step = 100%
Source Step = 100%
Source Step = 100%
Source Step = 100%
Source Step = 100%
Source Step = 100%
Source Step = 100%
Source Step = 100%
Source Step = 100%
Source Step = 100%
Source Step = 100%
Source Step = 100%
Source Step = 100%
Source Step = 100%
Source Step = 100%
Source Step = 100%
Source Step = 100%
Source Step = 100%
Source Step = 100%
Source Step = 100%
Source Step = 100%
Source Step = 100%
Source Step = 100%
Source Step = 100%
Source Step = 100%
Source Step = 100%
Source Step = 100%
Source Step = 100%
Source Step = 100%
Source Step = 100%
Source Step = 100%
Source Step = 100%
Source Step = 100%
Source Step = 100%
Source Step = 100%
Source Step = 100%
Source Step = 100%
Source Step = 100%
Source Step = 100%
Source Step = 100%
Source Step = 100%
Source Step = 100%
Source Step = 100%
Source Step = 100%
Source Step = 100%
Source Step = 100%
Source Step = 100%
Source Step = 100%
Source Step = 100%
Source Step = 100%
Source Step = 100%
Source Step = 100%
Source Step = 100%
Source Step = 100%
Source Step = 100%
Source Step = 100%
Source Step = 100%
Source Step = 100%
Source Step = 100%
Source Step = 100%
Source Step = 100%
Source Step = 100%
Source Step = 100%
Source Step = 100%
Source Step = 100%
Source Step = 100%
Source Step = 100%
Source Step = 100%
Source Step = 100%
Source Step = 100%
Source Step = 100%
Source Step = 100%
Source Step = 100%
Source Step = 100%
Source Step = 100%
Source Step = 100%
Source Step = 100%
Source Step = 100%
Source Step = 100%
Source Step = 100%
Source Step = 100%
Source Step = 100%
Source Step = 100%
Source Step = 100%
Source Step = 100%
Source Step = 100%
Source Step = 100%
Source Step = 100%
Source Step = 100%
Source Step = 100%
Source Step = 100%
Source Step = 100%
Source Step = 100%
Source Step = 100%
Source Step = 100%
Source Step = 100%
Source Step = 100%
Source Step = 100%
Source Step = 100%
Source Step = 100%
Source Step = 100%
Source Step = 100%
Source Step = 100%
Source Step = 100%
Source Step = 100%
Source Step = 100%
Source Step = 100%
Source Step = 100%
Source Step = 100%
Source Step = 100%
Source Step = 100%
Source Step = 100%
Source Step = 100%
Source Step = 100%
Source Step = 100%
Source Step = 100%
Source Step = 100%
Source Step = 100%
Source Step = 100%
Source Step = 100%
Source Step = 100%
Source Step = 100%
Source Step = 100%
Source Step = 100%
Source Step = 100%
Source Step = 100%
Source Step = 100%
Source Step = 100%
Source Step = 100%
Source Step = 100%
Source Step = 100%
Source Step = 100%
Source Step = 100%
Source Step = 100%
Source Step = 100%
Source Step = 100%
Source Step = 100%
Source Step = 100%
Source Step = 100%
Source Step = 100%
Source Step = 100%
Source Step = 100%
Source Step = 100%
Source Step = 100%
Source Step = 100%
Source Step = 100%
Source Step = 100%
Source Step = 100%
Source Step = 100%
Source Step = 100%
Source Step = 100%
Source Step = 100%
Source Step = 100%
Source Step = 100%
Source Step = 100%
Source Step = 100%
Source Step = 100%
Source Step = 100%
Source Step = 100%
Source Step = 100%
Source Step = 100%
Source Step = 100%
Source Step = 100%
Source Step = 100%
Source Step = 100%
Source Step = 100%
Source Step = 100%
Source Step = 100%
Source Step = 100%
Source Step = 100%
Source Step = 100%
Source Step = 100%
Source Step = 100%
Source Step = 100%
Source Step = 100%
Source Step = 100%
Source Step = 100%
Source Step = 100%
Source Step = 100%
Source Step = 100%
Source Step = 100%
Source Step = 100%
Source Step = 100%
Source Step = 100%
Source Step = 100%
Source Step = 100%
Source Step = 100%
