Circuit: * C:\Users\metecan\Google Drive\WORKSPACE\ELEC421\HW2\HW2_1.asc

Ignoring BSIM parameter XL
Ignoring BSIM parameter XW
Warning: Pd = 0 is less than W.
Warning: Ps = 0 is less than W.

Date: Wed Nov 21 23:25:19 2018
Total elapsed time: 0.074 seconds.

tnom = 27
temp = 27
method = trap
totiter = 124
traniter = 0
tranpoints = 0
accept = 0
rejected = 0
matrix size = 9
fillins = 0
solver = Normal
Matrix Compiler1: 332 bytes object code size  0.4/0.1/[0.1]
Matrix Compiler2: 755 bytes object code size  0.3/0.3/[0.2]

