Circuit: * C:\Users\metecangazi\Google Drive\WORKSPACE\ELEC421\HW3\HW3.asc

Ignoring BSIM parameter XL
Ignoring BSIM parameter XW
Ignoring BSIM parameter XL
Ignoring BSIM parameter XW
WARNING: Less than two connections to node N003.  This node is used by R1.
Warning: Pd = 0 is less than W.
Warning: Ps = 0 is less than W.
Warning: Pd = 0 is less than W.
Warning: Ps = 0 is less than W.
Warning: Pd = 0 is less than W.
Warning: Ps = 0 is less than W.
Warning: Pd = 0 is less than W.
Warning: Ps = 0 is less than W.
Direct Newton iteration for .op point succeeded.
.step ib=5e-005
.step ib=0.0002
.step ib=0.00035
.step ib=0.0005

Date: Thu Dec 06 12:30:33 2018
Total elapsed time: 0.273 seconds.

tnom = 27
temp = 27
method = trap
totiter = 1731
traniter = 0
tranpoints = 0
accept = 0
rejected = 0
matrix size = 12
fillins = 4
solver = Normal
Matrix Compiler1:      44 opcodes
Matrix Compiler2: off  [0.2]/0.2/0.3

