Circuit: * C:\Users\metecan\Google Drive\WORKSPACE\ELEC421\HW4\LowPassFilter.asc

Ignoring BSIM parameter XL
Ignoring BSIM parameter XW
Ignoring BSIM parameter XL
Ignoring BSIM parameter XW
WARNING: Node X1:N002 is floating.
WARNING: Node X1:NC_01 is floating.

WARNING: Less than two connections to node X1:NC_01.  This node is used by M:X1:12.
Warning: Pd = 0 is less than W.
Warning: Ps = 0 is less than W.
Warning: Pd = 0 is less than W.
Warning: Ps = 0 is less than W.
Warning: Pd = 0 is less than W.
Warning: Ps = 0 is less than W.
Warning: Pd = 0 is less than W.
Warning: Ps = 0 is less than W.
Warning: Pd = 0 is less than W.
Warning: Ps = 0 is less than W.
Warning: Pd = 0 is less than W.
Warning: Ps = 0 is less than W.
Warning: Pd = 0 is less than W.
Warning: Ps = 0 is less than W.
Warning: Pd = 0 is less than W.
Warning: Ps = 0 is less than W.
Direct Newton iteration failed to find .op point.  (Use ".option noopiter" to skip.)
Starting Gmin stepping
Gmin = 10
vernier = 0.5
Gmin = 1.67772
vernier = 0.25
vernier = 0.125
vernier = 0.0625
vernier = 0.03125
vernier = 0.015625
vernier = 0.0078125
vernier = 0.00390625
vernier = 0.00195313
Gmin = 1.49131
vernier = 0.000976563
vernier = 0.000488281
Gmin = 0
Gmin stepping succeeded in finding the operating point.


Date: Thu Dec 27 11:23:32 2018
Total elapsed time: 0.287 seconds.

tnom = 27
temp = 27
method = trap
totiter = 1375
traniter = 0
tranpoints = 0
accept = 0
rejected = 0
matrix size = 20
fillins = 20
solver = Normal
Matrix Compiler1:     151 opcodes
Matrix Compiler2: off  [0.5]/0.9/1.5

